taskid: 0 hostname: x3101c0s5b0n0
Quilting with   1 groups of   0 I/O tasks.
 Ntasks in X             8 , ntasks in Y            16
Checking out AceCAST Licenses.
 RLM license checkout:
 ------------------------
 Product: acecast
 Version: 3
 Count: 128
 ------------------------
Successfully checked out licenses.
AceCAST Device Mapping:
    |------------------|-----------------|----------------|-----------|
    | Rank ID (global) | Rank ID (local) | Hostname       | Device ID |
    |------------------|-----------------|----------------|-----------|
 -> |                0 |               0 | x3101c0s5b0n0  |         0 |
    |                1 |               1 | x3101c0s5b0n0  |         1 |
    |                2 |               2 | x3101c0s5b0n0  |         2 |
    |                3 |               3 | x3101c0s5b0n0  |         3 |
    |                4 |               0 | x3108c0s21b0n0 |         0 |
    |                5 |               1 | x3108c0s21b0n0 |         1 |
    |                6 |               2 | x3108c0s21b0n0 |         2 |
    |                7 |               3 | x3108c0s21b0n0 |         3 |
    |                8 |               0 | x3108c0s9b0n0  |         0 |
    |                9 |               1 | x3108c0s9b0n0  |         1 |
    |               10 |               2 | x3108c0s9b0n0  |         2 |
    |               11 |               3 | x3108c0s9b0n0  |         3 |
    |               12 |               0 | x3103c0s29b0n0 |         0 |
    |               13 |               1 | x3103c0s29b0n0 |         1 |
    |               14 |               2 | x3103c0s29b0n0 |         2 |
    |               15 |               3 | x3103c0s29b0n0 |         3 |
    |               16 |               0 | x3102c0s13b0n0 |         0 |
    |               17 |               1 | x3102c0s13b0n0 |         1 |
    |               18 |               2 | x3102c0s13b0n0 |         2 |
    |               19 |               3 | x3102c0s13b0n0 |         3 |
    |               20 |               0 | x3109c0s9b0n0  |         0 |
    |               21 |               1 | x3109c0s9b0n0  |         1 |
    |               22 |               2 | x3109c0s9b0n0  |         2 |
    |               23 |               3 | x3109c0s9b0n0  |         3 |
    |               24 |               0 | x3109c0s33b0n0 |         0 |
    |               25 |               1 | x3109c0s33b0n0 |         1 |
    |               26 |               2 | x3109c0s33b0n0 |         2 |
    |               27 |               3 | x3109c0s33b0n0 |         3 |
    |               28 |               0 | x3103c0s21b0n0 |         0 |
    |               29 |               1 | x3103c0s21b0n0 |         1 |
    |               30 |               2 | x3103c0s21b0n0 |         2 |
    |               31 |               3 | x3103c0s21b0n0 |         3 |
    |               32 |               0 | x3101c0s37b0n0 |         0 |
    |               33 |               1 | x3101c0s37b0n0 |         1 |
    |               34 |               2 | x3101c0s37b0n0 |         2 |
    |               35 |               3 | x3101c0s37b0n0 |         3 |
    |               36 |               0 | x3103c0s41b0n0 |         0 |
    |               37 |               1 | x3103c0s41b0n0 |         1 |
    |               38 |               2 | x3103c0s41b0n0 |         2 |
    |               39 |               3 | x3103c0s41b0n0 |         3 |
    |               40 |               0 | x3106c0s25b0n0 |         0 |
    |               41 |               1 | x3106c0s25b0n0 |         1 |
    |               42 |               2 | x3106c0s25b0n0 |         2 |
    |               43 |               3 | x3106c0s25b0n0 |         3 |
    |               44 |               0 | x3103c0s33b0n0 |         0 |
    |               45 |               1 | x3103c0s33b0n0 |         1 |
    |               46 |               2 | x3103c0s33b0n0 |         2 |
    |               47 |               3 | x3103c0s33b0n0 |         3 |
    |               48 |               0 | x3107c0s5b0n0  |         0 |
    |               49 |               1 | x3107c0s5b0n0  |         1 |
    |               50 |               2 | x3107c0s5b0n0  |         2 |
    |               51 |               3 | x3107c0s5b0n0  |         3 |
    |               52 |               0 | x3104c0s33b0n0 |         0 |
    |               53 |               1 | x3104c0s33b0n0 |         1 |
    |               54 |               2 | x3104c0s33b0n0 |         2 |
    |               55 |               3 | x3104c0s33b0n0 |         3 |
    |               56 |               0 | x3108c0s25b0n0 |         0 |
    |               57 |               1 | x3108c0s25b0n0 |         1 |
    |               58 |               2 | x3108c0s25b0n0 |         2 |
    |               59 |               3 | x3108c0s25b0n0 |         3 |
    |               60 |               0 | x3103c0s13b0n0 |         0 |
    |               61 |               1 | x3103c0s13b0n0 |         1 |
    |               62 |               2 | x3103c0s13b0n0 |         2 |
    |               63 |               3 | x3103c0s13b0n0 |         3 |
    |               64 |               0 | x3105c0s21b0n0 |         0 |
    |               65 |               1 | x3105c0s21b0n0 |         1 |
    |               66 |               2 | x3105c0s21b0n0 |         2 |
    |               67 |               3 | x3105c0s21b0n0 |         3 |
    |               68 |               0 | x3109c0s21b0n0 |         0 |
    |               69 |               1 | x3109c0s21b0n0 |         1 |
    |               70 |               2 | x3109c0s21b0n0 |         2 |
    |               71 |               3 | x3109c0s21b0n0 |         3 |
    |               72 |               0 | x3107c0s13b0n0 |         0 |
    |               73 |               1 | x3107c0s13b0n0 |         1 |
    |               74 |               2 | x3107c0s13b0n0 |         2 |
    |               75 |               3 | x3107c0s13b0n0 |         3 |
    |               76 |               0 | x3105c0s25b0n0 |         0 |
    |               77 |               1 | x3105c0s25b0n0 |         1 |
    |               78 |               2 | x3105c0s25b0n0 |         2 |
    |               79 |               3 | x3105c0s25b0n0 |         3 |
    |               80 |               0 | x3105c0s5b0n0  |         0 |
    |               81 |               1 | x3105c0s5b0n0  |         1 |
    |               82 |               2 | x3105c0s5b0n0  |         2 |
    |               83 |               3 | x3105c0s5b0n0  |         3 |
    |               84 |               0 | x3105c0s33b0n0 |         0 |
    |               85 |               1 | x3105c0s33b0n0 |         1 |
    |               86 |               2 | x3105c0s33b0n0 |         2 |
    |               87 |               3 | x3105c0s33b0n0 |         3 |
    |               88 |               0 | x3106c0s13b0n0 |         0 |
    |               89 |               1 | x3106c0s13b0n0 |         1 |
    |               90 |               2 | x3106c0s13b0n0 |         2 |
    |               91 |               3 | x3106c0s13b0n0 |         3 |
    |               92 |               0 | x3101c0s29b0n0 |         0 |
    |               93 |               1 | x3101c0s29b0n0 |         1 |
    |               94 |               2 | x3101c0s29b0n0 |         2 |
    |               95 |               3 | x3101c0s29b0n0 |         3 |
    |               96 |               0 | x3108c0s17b0n0 |         0 |
    |               97 |               1 | x3108c0s17b0n0 |         1 |
    |               98 |               2 | x3108c0s17b0n0 |         2 |
    |               99 |               3 | x3108c0s17b0n0 |         3 |
    |              100 |               0 | x3110c0s5b0n0  |         0 |
    |              101 |               1 | x3110c0s5b0n0  |         1 |
    |              102 |               2 | x3110c0s5b0n0  |         2 |
    |              103 |               3 | x3110c0s5b0n0  |         3 |
    |              104 |               0 | x3102c0s21b0n0 |         0 |
    |              105 |               1 | x3102c0s21b0n0 |         1 |
    |              106 |               2 | x3102c0s21b0n0 |         2 |
    |              107 |               3 | x3102c0s21b0n0 |         3 |
    |              108 |               0 | x3107c0s37b0n0 |         0 |
    |              109 |               1 | x3107c0s37b0n0 |         1 |
    |              110 |               2 | x3107c0s37b0n0 |         2 |
    |              111 |               3 | x3107c0s37b0n0 |         3 |
    |              112 |               0 | x3106c0s5b0n0  |         0 |
    |              113 |               1 | x3106c0s5b0n0  |         1 |
    |              114 |               2 | x3106c0s5b0n0  |         2 |
    |              115 |               3 | x3106c0s5b0n0  |         3 |
    |              116 |               0 | x3108c0s33b0n0 |         0 |
    |              117 |               1 | x3108c0s33b0n0 |         1 |
    |              118 |               2 | x3108c0s33b0n0 |         2 |
    |              119 |               3 | x3108c0s33b0n0 |         3 |
    |              120 |               0 | x3104c0s25b0n0 |         0 |
    |              121 |               1 | x3104c0s25b0n0 |         1 |
    |              122 |               2 | x3104c0s25b0n0 |         2 |
    |              123 |               3 | x3104c0s25b0n0 |         3 |
    |              124 |               0 | x3105c0s37b0n0 |         0 |
    |              125 |               1 | x3105c0s37b0n0 |         1 |
    |              126 |               2 | x3105c0s37b0n0 |         2 |
    |              127 |               3 | x3105c0s37b0n0 |         3 |
    |------------------|-----------------|----------------|-----------|
*************************************
Configuring physics suite 'conus'

         mp_physics:      8
         cu_physics:      0*
      ra_lw_physics:      4
      ra_sw_physics:      4
     bl_pbl_physics:      2
  sf_sfclay_physics:      2
 sf_surface_physics:      2

(* = option overrides suite setting)
*************************************
  Domain # 1: dx =  2500.000 m
 SUPPORT CHECK SUCCESS: Valid namelist configuration for AceCAST execution.
AceCAST Version 4.0.2
Build: acecast-v4.0.2+linux.x86_64.haswell.nvhpc24.3
Equivalent WRF version: WRF V4.6.0 MODEL
git commit 2931222f3382234aab278f40f13358b02a684d4f
 *************************************
 Parent domain
 ids,ide,jds,jde             1         1501            1         1201
 ims,ime,jms,jme           -31          224           -4           82
 ips,ipe,jps,jpe             1          188            1           75
 *************************************
DYNAMICS OPTION: Eulerian Mass Coordinate
   alloc_space_field: domain             1 ,                 696630928  bytes allocated
  med_initialdata_input: calling input_input
   Input data is acceptable to use: wrfinput_d01
 CURRENT DATE          = 2019-11-26_18:00:00
 SIMULATION START DATE = 2019-11-26_18:00:00
Timing for processing wrfinput file (stream 0) for domain        1:   36.47211 elapsed seconds
Max map factor in domain 1 =  1.02. Scale the dt in the model accordingly.
 D01: Time step                              =     15.00000      (s)
 D01: Grid Distance                          =     2.500000      (km)
 D01: Grid Distance Ratio dt/dx              =     6.000000      (s/km)
 D01: Ratio Including Maximum Map Factor     =     6.138156      (s/km)
 D01: NML defined reasonable_time_step_ratio =     6.000000
 Climate GHG input from file from year          1765  to          2499
 CO2   range =     277.9130000000000         579.2640000000000       ppm
 N2O   range =     274.3720000000000         359.7980000000000       ppb
 CH4   range =     738.9860000000000         997.3110000000000       ppb
 CFC11 range =     0.000000000000000        1.4000000000000000E-002  ppt
 CFC12 range =     0.000000000000000         2.881000000000000       ppt
 Normal ending of CAMtr_volume_mixing_ratio file
 GHG annual values from CAM trace gas file
 Year =          2019 , Julian day =           330
 CO2   =    4.1280616288937283E-004  volume mixing ratio
 N2O   =    3.3164731848847701E-007  volume mixing ratio
 CH4   =    1.9046224215321381E-006  volume mixing ratio
 CFC11 =    2.1972312207550427E-010  volume mixing ratio
 CFC12 =    4.9756474391800364E-010  volume mixing ratio
INPUT LandUse = "MODIFIED_IGBP_MODIS_NOAH"
 LANDUSE TYPE = "MODIFIED_IGBP_MODIS_NOAH" FOUND           61  CATEGORIES            2  SEASONS WATER CATEGORY =            17  SNOW CATEGORY =            15
INITIALIZE THREE Noah LSM RELATED TABLES
Skipping over LUTYPE = USGS
 LANDUSE TYPE = MODIFIED_IGBP_MODIS_NOAH FOUND           20  CATEGORIES
 INPUT SOIL TEXTURE CLASSIFICATION = STAS
 SOIL TEXTURE CLASSIFICATION = STAS FOUND           19  CATEGORIES
ThompMP: computing qr_acr_qg table: qr_acr_qg_V4.dat
Timing for table computation qr_acr_qg_V4.dat:    0.26655 elapsed seconds
Writing qr_acr_qg_V4.dat     in Thompson MP init
ThompMP: computing qr_acr_qs
Writing qr_acr_qsV2.dat in Thompson MP init
ThompMP: computing freezeH2O
Writing freezeH2O.dat in Thompson MP init
Timing for Writing wrfout_d01_2019-11-26_18:00:00 for domain        1:   16.32684 elapsed seconds
d01 2019-11-26_18:00:00  Input data is acceptable to use: wrfbdy_d01
Timing for processing lateral boundary for domain        1:    1.56287 elapsed seconds
 Tile Strategy is not specified. Assuming 1D-Y
WRF TILE   1 IS      1 IE    188 JS      1 JE     75
WRF NUMBER OF TILES =   1
d01 2019-11-26_18:00:00  ----------------------------------------
d01 2019-11-26_18:00:00  W-DAMPING  BEGINS AT W-COURANT NUMBER =     1.000000
d01 2019-11-26_18:00:00  ----------------------------------------
Timing for main: time 2019-11-26_18:00:15 on domain   1:   18.51227 elapsed seconds
Timing for main: time 2019-11-26_18:00:30 on domain   1:    0.22140 elapsed seconds
Timing for main: time 2019-11-26_18:00:45 on domain   1:    0.21762 elapsed seconds
Timing for main: time 2019-11-26_18:01:00 on domain   1:    0.21747 elapsed seconds
Timing for main: time 2019-11-26_18:01:15 on domain   1:    0.21633 elapsed seconds
Timing for main: time 2019-11-26_18:01:30 on domain   1:    0.21393 elapsed seconds
Timing for main: time 2019-11-26_18:01:45 on domain   1:    0.21701 elapsed seconds
Timing for main: time 2019-11-26_18:02:00 on domain   1:    0.21312 elapsed seconds
Timing for main: time 2019-11-26_18:02:15 on domain   1:    0.21495 elapsed seconds
Timing for main: time 2019-11-26_18:02:30 on domain   1:    0.21600 elapsed seconds
Timing for main: time 2019-11-26_18:02:45 on domain   1:    0.21514 elapsed seconds
Timing for main: time 2019-11-26_18:03:00 on domain   1:    0.21451 elapsed seconds
Timing for main: time 2019-11-26_18:03:15 on domain   1:    0.21512 elapsed seconds
Timing for main: time 2019-11-26_18:03:30 on domain   1:    0.21553 elapsed seconds
Timing for main: time 2019-11-26_18:03:45 on domain   1:    0.21463 elapsed seconds
Timing for main: time 2019-11-26_18:04:00 on domain   1:    0.21416 elapsed seconds
Timing for main: time 2019-11-26_18:04:15 on domain   1:    0.21387 elapsed seconds
Timing for main: time 2019-11-26_18:04:30 on domain   1:    0.21427 elapsed seconds
Timing for main: time 2019-11-26_18:04:45 on domain   1:    0.21493 elapsed seconds
Timing for main: time 2019-11-26_18:05:00 on domain   1:    0.21367 elapsed seconds
Timing for main: time 2019-11-26_18:05:15 on domain   1:    0.21529 elapsed seconds
Timing for main: time 2019-11-26_18:05:30 on domain   1:    0.21288 elapsed seconds
Timing for main: time 2019-11-26_18:05:45 on domain   1:    0.21501 elapsed seconds
Timing for main: time 2019-11-26_18:06:00 on domain   1:    0.21554 elapsed seconds
Timing for main: time 2019-11-26_18:06:15 on domain   1:    0.21581 elapsed seconds
Timing for main: time 2019-11-26_18:06:30 on domain   1:    0.21545 elapsed seconds
Timing for main: time 2019-11-26_18:06:45 on domain   1:    0.21433 elapsed seconds
Timing for main: time 2019-11-26_18:07:00 on domain   1:    0.21388 elapsed seconds
Timing for main: time 2019-11-26_18:07:15 on domain   1:    0.21729 elapsed seconds
Timing for main: time 2019-11-26_18:07:30 on domain   1:    0.21258 elapsed seconds
Timing for main: time 2019-11-26_18:07:45 on domain   1:    0.21605 elapsed seconds
Timing for main: time 2019-11-26_18:08:00 on domain   1:    0.21359 elapsed seconds
Timing for main: time 2019-11-26_18:08:15 on domain   1:    0.21404 elapsed seconds
Timing for main: time 2019-11-26_18:08:30 on domain   1:    0.21318 elapsed seconds
Timing for main: time 2019-11-26_18:08:45 on domain   1:    0.21455 elapsed seconds
Timing for main: time 2019-11-26_18:09:00 on domain   1:    0.21562 elapsed seconds
Timing for main: time 2019-11-26_18:09:15 on domain   1:    0.21548 elapsed seconds
Timing for main: time 2019-11-26_18:09:30 on domain   1:    0.21278 elapsed seconds
Timing for main: time 2019-11-26_18:09:45 on domain   1:    0.21450 elapsed seconds
Timing for main: time 2019-11-26_18:10:00 on domain   1:    0.21353 elapsed seconds
Timing for main: time 2019-11-26_18:10:15 on domain   1:    0.42378 elapsed seconds
Timing for main: time 2019-11-26_18:10:30 on domain   1:    0.39261 elapsed seconds
Timing for main: time 2019-11-26_18:10:45 on domain   1:    0.35356 elapsed seconds
Timing for main: time 2019-11-26_18:11:00 on domain   1:    0.21817 elapsed seconds
Timing for main: time 2019-11-26_18:11:15 on domain   1:    0.21811 elapsed seconds
Timing for main: time 2019-11-26_18:11:30 on domain   1:    0.21343 elapsed seconds
Timing for main: time 2019-11-26_18:11:45 on domain   1:    0.21336 elapsed seconds
Timing for main: time 2019-11-26_18:12:00 on domain   1:    0.21440 elapsed seconds
Timing for main: time 2019-11-26_18:12:15 on domain   1:    0.21504 elapsed seconds
Timing for main: time 2019-11-26_18:12:30 on domain   1:    0.21311 elapsed seconds
Timing for main: time 2019-11-26_18:12:45 on domain   1:    0.21626 elapsed seconds
Timing for main: time 2019-11-26_18:13:00 on domain   1:    0.21418 elapsed seconds
Timing for main: time 2019-11-26_18:13:15 on domain   1:    0.21344 elapsed seconds
Timing for main: time 2019-11-26_18:13:30 on domain   1:    0.21242 elapsed seconds
Timing for main: time 2019-11-26_18:13:45 on domain   1:    0.21353 elapsed seconds
Timing for main: time 2019-11-26_18:14:00 on domain   1:    0.21364 elapsed seconds
Timing for main: time 2019-11-26_18:14:15 on domain   1:    0.21773 elapsed seconds
Timing for main: time 2019-11-26_18:14:30 on domain   1:    0.21276 elapsed seconds
Timing for main: time 2019-11-26_18:14:45 on domain   1:    0.21451 elapsed seconds
Timing for main: time 2019-11-26_18:15:00 on domain   1:    0.21266 elapsed seconds
Timing for main: time 2019-11-26_18:15:15 on domain   1:    0.21357 elapsed seconds
Timing for main: time 2019-11-26_18:15:30 on domain   1:    0.21328 elapsed seconds
Timing for main: time 2019-11-26_18:15:45 on domain   1:    0.21500 elapsed seconds
Timing for main: time 2019-11-26_18:16:00 on domain   1:    0.21490 elapsed seconds
Timing for main: time 2019-11-26_18:16:15 on domain   1:    0.21326 elapsed seconds
Timing for main: time 2019-11-26_18:16:30 on domain   1:    0.21365 elapsed seconds
Timing for main: time 2019-11-26_18:16:45 on domain   1:    0.21618 elapsed seconds
Timing for main: time 2019-11-26_18:17:00 on domain   1:    0.21253 elapsed seconds
Timing for main: time 2019-11-26_18:17:15 on domain   1:    0.21239 elapsed seconds
Timing for main: time 2019-11-26_18:17:30 on domain   1:    0.21358 elapsed seconds
Timing for main: time 2019-11-26_18:17:45 on domain   1:    0.21486 elapsed seconds
Timing for main: time 2019-11-26_18:18:00 on domain   1:    0.21495 elapsed seconds
Timing for main: time 2019-11-26_18:18:15 on domain   1:    0.21401 elapsed seconds
Timing for main: time 2019-11-26_18:18:30 on domain   1:    0.21378 elapsed seconds
Timing for main: time 2019-11-26_18:18:45 on domain   1:    0.21303 elapsed seconds
Timing for main: time 2019-11-26_18:19:00 on domain   1:    0.21507 elapsed seconds
Timing for main: time 2019-11-26_18:19:15 on domain   1:    0.21443 elapsed seconds
Timing for main: time 2019-11-26_18:19:30 on domain   1:    0.21317 elapsed seconds
Timing for main: time 2019-11-26_18:19:45 on domain   1:    0.21389 elapsed seconds
Timing for main: time 2019-11-26_18:20:00 on domain   1:    0.21502 elapsed seconds
Timing for main: time 2019-11-26_18:20:15 on domain   1:    0.36435 elapsed seconds
Timing for main: time 2019-11-26_18:20:30 on domain   1:    0.21573 elapsed seconds
Timing for main: time 2019-11-26_18:20:45 on domain   1:    0.21331 elapsed seconds
Timing for main: time 2019-11-26_18:21:00 on domain   1:    0.21283 elapsed seconds
Timing for main: time 2019-11-26_18:21:15 on domain   1:    0.21472 elapsed seconds
Timing for main: time 2019-11-26_18:21:30 on domain   1:    0.21358 elapsed seconds
Timing for main: time 2019-11-26_18:21:45 on domain   1:    0.21385 elapsed seconds
Timing for main: time 2019-11-26_18:22:00 on domain   1:    0.21238 elapsed seconds
Timing for main: time 2019-11-26_18:22:15 on domain   1:    0.21617 elapsed seconds
Timing for main: time 2019-11-26_18:22:30 on domain   1:    0.21324 elapsed seconds
Timing for main: time 2019-11-26_18:22:45 on domain   1:    0.21475 elapsed seconds
Timing for main: time 2019-11-26_18:23:00 on domain   1:    0.21372 elapsed seconds
Timing for main: time 2019-11-26_18:23:15 on domain   1:    0.21506 elapsed seconds
Timing for main: time 2019-11-26_18:23:30 on domain   1:    0.21486 elapsed seconds
Timing for main: time 2019-11-26_18:23:45 on domain   1:    0.21472 elapsed seconds
Timing for main: time 2019-11-26_18:24:00 on domain   1:    0.21211 elapsed seconds
Timing for main: time 2019-11-26_18:24:15 on domain   1:    0.21563 elapsed seconds
Timing for main: time 2019-11-26_18:24:30 on domain   1:    0.21426 elapsed seconds
Timing for main: time 2019-11-26_18:24:45 on domain   1:    0.21403 elapsed seconds
Timing for main: time 2019-11-26_18:25:00 on domain   1:    0.21281 elapsed seconds
Timing for main: time 2019-11-26_18:25:15 on domain   1:    0.21413 elapsed seconds
Timing for main: time 2019-11-26_18:25:30 on domain   1:    0.21535 elapsed seconds
Timing for main: time 2019-11-26_18:25:45 on domain   1:    0.21524 elapsed seconds
Timing for main: time 2019-11-26_18:26:00 on domain   1:    0.21505 elapsed seconds
Timing for main: time 2019-11-26_18:26:15 on domain   1:    0.21481 elapsed seconds
Timing for main: time 2019-11-26_18:26:30 on domain   1:    0.21467 elapsed seconds
Timing for main: time 2019-11-26_18:26:45 on domain   1:    0.21344 elapsed seconds
Timing for main: time 2019-11-26_18:27:00 on domain   1:    0.21527 elapsed seconds
Timing for main: time 2019-11-26_18:27:15 on domain   1:    0.21311 elapsed seconds
Timing for main: time 2019-11-26_18:27:30 on domain   1:    0.21454 elapsed seconds
Timing for main: time 2019-11-26_18:27:45 on domain   1:    0.21202 elapsed seconds
Timing for main: time 2019-11-26_18:28:00 on domain   1:    0.21394 elapsed seconds
Timing for main: time 2019-11-26_18:28:15 on domain   1:    0.21361 elapsed seconds
Timing for main: time 2019-11-26_18:28:30 on domain   1:    0.21485 elapsed seconds
Timing for main: time 2019-11-26_18:28:45 on domain   1:    0.21572 elapsed seconds
Timing for main: time 2019-11-26_18:29:00 on domain   1:    0.21140 elapsed seconds
Timing for main: time 2019-11-26_18:29:15 on domain   1:    0.21497 elapsed seconds
Timing for main: time 2019-11-26_18:29:30 on domain   1:    0.21522 elapsed seconds
Timing for main: time 2019-11-26_18:29:45 on domain   1:    0.21542 elapsed seconds
Timing for main: time 2019-11-26_18:30:00 on domain   1:    0.21275 elapsed seconds
Timing for main: time 2019-11-26_18:30:15 on domain   1:    0.36446 elapsed seconds
Timing for main: time 2019-11-26_18:30:30 on domain   1:    0.21418 elapsed seconds
Timing for main: time 2019-11-26_18:30:45 on domain   1:    0.21562 elapsed seconds
Timing for main: time 2019-11-26_18:31:00 on domain   1:    0.21514 elapsed seconds
Timing for main: time 2019-11-26_18:31:15 on domain   1:    0.21422 elapsed seconds
Timing for main: time 2019-11-26_18:31:30 on domain   1:    0.21677 elapsed seconds
Timing for main: time 2019-11-26_18:31:45 on domain   1:    0.21436 elapsed seconds
Timing for main: time 2019-11-26_18:32:00 on domain   1:    0.21443 elapsed seconds
Timing for main: time 2019-11-26_18:32:15 on domain   1:    0.21532 elapsed seconds
Timing for main: time 2019-11-26_18:32:30 on domain   1:    0.21370 elapsed seconds
Timing for main: time 2019-11-26_18:32:45 on domain   1:    0.21486 elapsed seconds
Timing for main: time 2019-11-26_18:33:00 on domain   1:    0.21438 elapsed seconds
Timing for main: time 2019-11-26_18:33:15 on domain   1:    0.21496 elapsed seconds
Timing for main: time 2019-11-26_18:33:30 on domain   1:    0.21269 elapsed seconds
Timing for main: time 2019-11-26_18:33:45 on domain   1:    0.21368 elapsed seconds
Timing for main: time 2019-11-26_18:34:00 on domain   1:    0.21452 elapsed seconds
Timing for main: time 2019-11-26_18:34:15 on domain   1:    0.21435 elapsed seconds
Timing for main: time 2019-11-26_18:34:30 on domain   1:    0.21427 elapsed seconds
Timing for main: time 2019-11-26_18:34:45 on domain   1:    0.21488 elapsed seconds
Timing for main: time 2019-11-26_18:35:00 on domain   1:    0.21559 elapsed seconds
Timing for main: time 2019-11-26_18:35:15 on domain   1:    0.21431 elapsed seconds
Timing for main: time 2019-11-26_18:35:30 on domain   1:    0.21457 elapsed seconds
Timing for main: time 2019-11-26_18:35:45 on domain   1:    0.21273 elapsed seconds
Timing for main: time 2019-11-26_18:36:00 on domain   1:    0.21276 elapsed seconds
Timing for main: time 2019-11-26_18:36:15 on domain   1:    0.21595 elapsed seconds
Timing for main: time 2019-11-26_18:36:30 on domain   1:    0.21381 elapsed seconds
Timing for main: time 2019-11-26_18:36:45 on domain   1:    0.21439 elapsed seconds
Timing for main: time 2019-11-26_18:37:00 on domain   1:    0.21594 elapsed seconds
Timing for main: time 2019-11-26_18:37:15 on domain   1:    0.21553 elapsed seconds
Timing for main: time 2019-11-26_18:37:30 on domain   1:    0.21286 elapsed seconds
Timing for main: time 2019-11-26_18:37:45 on domain   1:    0.21527 elapsed seconds
Timing for main: time 2019-11-26_18:38:00 on domain   1:    0.21453 elapsed seconds
Timing for main: time 2019-11-26_18:38:15 on domain   1:    0.21368 elapsed seconds
Timing for main: time 2019-11-26_18:38:30 on domain   1:    0.21506 elapsed seconds
Timing for main: time 2019-11-26_18:38:45 on domain   1:    0.21506 elapsed seconds
Timing for main: time 2019-11-26_18:39:00 on domain   1:    0.21266 elapsed seconds
Timing for main: time 2019-11-26_18:39:15 on domain   1:    0.21588 elapsed seconds
Timing for main: time 2019-11-26_18:39:30 on domain   1:    0.21584 elapsed seconds
Timing for main: time 2019-11-26_18:39:45 on domain   1:    0.21629 elapsed seconds
Timing for main: time 2019-11-26_18:40:00 on domain   1:    0.21414 elapsed seconds
Timing for main: time 2019-11-26_18:40:15 on domain   1:    0.36139 elapsed seconds
Timing for main: time 2019-11-26_18:40:30 on domain   1:    0.21114 elapsed seconds
Timing for main: time 2019-11-26_18:40:45 on domain   1:    0.21311 elapsed seconds
Timing for main: time 2019-11-26_18:41:00 on domain   1:    0.21317 elapsed seconds
Timing for main: time 2019-11-26_18:41:15 on domain   1:    0.21512 elapsed seconds
Timing for main: time 2019-11-26_18:41:30 on domain   1:    0.21178 elapsed seconds
Timing for main: time 2019-11-26_18:41:45 on domain   1:    0.21406 elapsed seconds
Timing for main: time 2019-11-26_18:42:00 on domain   1:    0.21160 elapsed seconds
Timing for main: time 2019-11-26_18:42:15 on domain   1:    0.21636 elapsed seconds
Timing for main: time 2019-11-26_18:42:30 on domain   1:    0.21060 elapsed seconds
Timing for main: time 2019-11-26_18:42:45 on domain   1:    0.21733 elapsed seconds
Timing for main: time 2019-11-26_18:43:00 on domain   1:    0.21215 elapsed seconds
Timing for main: time 2019-11-26_18:43:15 on domain   1:    0.21586 elapsed seconds
Timing for main: time 2019-11-26_18:43:30 on domain   1:    0.21463 elapsed seconds
Timing for main: time 2019-11-26_18:43:45 on domain   1:    0.21757 elapsed seconds
Timing for main: time 2019-11-26_18:44:00 on domain   1:    0.21095 elapsed seconds
Timing for main: time 2019-11-26_18:44:15 on domain   1:    0.21770 elapsed seconds
Timing for main: time 2019-11-26_18:44:30 on domain   1:    0.21043 elapsed seconds
Timing for main: time 2019-11-26_18:44:45 on domain   1:    0.21673 elapsed seconds
Timing for main: time 2019-11-26_18:45:00 on domain   1:    0.21150 elapsed seconds
Timing for main: time 2019-11-26_18:45:15 on domain   1:    0.21580 elapsed seconds
Timing for main: time 2019-11-26_18:45:30 on domain   1:    0.21174 elapsed seconds
Timing for main: time 2019-11-26_18:45:45 on domain   1:    0.21585 elapsed seconds
Timing for main: time 2019-11-26_18:46:00 on domain   1:    0.21097 elapsed seconds
Timing for main: time 2019-11-26_18:46:15 on domain   1:    0.21645 elapsed seconds
Timing for main: time 2019-11-26_18:46:30 on domain   1:    0.21022 elapsed seconds
Timing for main: time 2019-11-26_18:46:45 on domain   1:    0.21752 elapsed seconds
Timing for main: time 2019-11-26_18:47:00 on domain   1:    0.21014 elapsed seconds
Timing for main: time 2019-11-26_18:47:15 on domain   1:    0.21598 elapsed seconds
Timing for main: time 2019-11-26_18:47:30 on domain   1:    0.20981 elapsed seconds
Timing for main: time 2019-11-26_18:47:45 on domain   1:    0.21577 elapsed seconds
Timing for main: time 2019-11-26_18:48:00 on domain   1:    0.21093 elapsed seconds
Timing for main: time 2019-11-26_18:48:15 on domain   1:    0.21626 elapsed seconds
Timing for main: time 2019-11-26_18:48:30 on domain   1:    0.21182 elapsed seconds
Timing for main: time 2019-11-26_18:48:45 on domain   1:    0.21520 elapsed seconds
Timing for main: time 2019-11-26_18:49:00 on domain   1:    0.21162 elapsed seconds
Timing for main: time 2019-11-26_18:49:15 on domain   1:    0.21902 elapsed seconds
Timing for main: time 2019-11-26_18:49:30 on domain   1:    0.21411 elapsed seconds
Timing for main: time 2019-11-26_18:49:45 on domain   1:    0.21505 elapsed seconds
Timing for main: time 2019-11-26_18:50:00 on domain   1:    0.21416 elapsed seconds
Timing for main: time 2019-11-26_18:50:15 on domain   1:    0.36880 elapsed seconds
Timing for main: time 2019-11-26_18:50:30 on domain   1:    0.21433 elapsed seconds
Timing for main: time 2019-11-26_18:50:45 on domain   1:    0.21615 elapsed seconds
Timing for main: time 2019-11-26_18:51:00 on domain   1:    0.21637 elapsed seconds
Timing for main: time 2019-11-26_18:51:15 on domain   1:    0.21556 elapsed seconds
Timing for main: time 2019-11-26_18:51:30 on domain   1:    0.21472 elapsed seconds
Timing for main: time 2019-11-26_18:51:45 on domain   1:    0.21322 elapsed seconds
Timing for main: time 2019-11-26_18:52:00 on domain   1:    0.21436 elapsed seconds
Timing for main: time 2019-11-26_18:52:15 on domain   1:    0.21443 elapsed seconds
Timing for main: time 2019-11-26_18:52:30 on domain   1:    0.21476 elapsed seconds
Timing for main: time 2019-11-26_18:52:45 on domain   1:    0.21372 elapsed seconds
Timing for main: time 2019-11-26_18:53:00 on domain   1:    0.21446 elapsed seconds
Timing for main: time 2019-11-26_18:53:15 on domain   1:    0.21555 elapsed seconds
Timing for main: time 2019-11-26_18:53:30 on domain   1:    0.21590 elapsed seconds
Timing for main: time 2019-11-26_18:53:45 on domain   1:    0.21453 elapsed seconds
Timing for main: time 2019-11-26_18:54:00 on domain   1:    0.21349 elapsed seconds
Timing for main: time 2019-11-26_18:54:15 on domain   1:    0.21593 elapsed seconds
Timing for main: time 2019-11-26_18:54:30 on domain   1:    0.21539 elapsed seconds
Timing for main: time 2019-11-26_18:54:45 on domain   1:    0.21458 elapsed seconds
Timing for main: time 2019-11-26_18:55:00 on domain   1:    0.21581 elapsed seconds
Timing for main: time 2019-11-26_18:55:15 on domain   1:    0.21524 elapsed seconds
Timing for main: time 2019-11-26_18:55:30 on domain   1:    0.21519 elapsed seconds
Timing for main: time 2019-11-26_18:55:45 on domain   1:    0.21488 elapsed seconds
Timing for main: time 2019-11-26_18:56:00 on domain   1:    0.21545 elapsed seconds
Timing for main: time 2019-11-26_18:56:15 on domain   1:    0.21432 elapsed seconds
Timing for main: time 2019-11-26_18:56:30 on domain   1:    0.21457 elapsed seconds
Timing for main: time 2019-11-26_18:56:45 on domain   1:    0.21591 elapsed seconds
Timing for main: time 2019-11-26_18:57:00 on domain   1:    0.21570 elapsed seconds
Timing for main: time 2019-11-26_18:57:15 on domain   1:    0.21561 elapsed seconds
Timing for main: time 2019-11-26_18:57:30 on domain   1:    0.21489 elapsed seconds
Timing for main: time 2019-11-26_18:57:45 on domain   1:    0.21323 elapsed seconds
Timing for main: time 2019-11-26_18:58:00 on domain   1:    0.21316 elapsed seconds
Timing for main: time 2019-11-26_18:58:15 on domain   1:    0.21378 elapsed seconds
Timing for main: time 2019-11-26_18:58:30 on domain   1:    0.21420 elapsed seconds
Timing for main: time 2019-11-26_18:58:45 on domain   1:    0.21509 elapsed seconds
Timing for main: time 2019-11-26_18:59:00 on domain   1:    0.21438 elapsed seconds
Timing for main: time 2019-11-26_18:59:15 on domain   1:    0.21375 elapsed seconds
Timing for main: time 2019-11-26_18:59:30 on domain   1:    0.21489 elapsed seconds
Timing for main: time 2019-11-26_18:59:45 on domain   1:    0.21512 elapsed seconds
Timing for main: time 2019-11-26_19:00:00 on domain   1:    0.22688 elapsed seconds
Timing for Writing wrfout_d01_2019-11-26_19:00:00 for domain        1:   18.72674 elapsed seconds
Timing for main: time 2019-11-26_19:00:15 on domain   1:   19.11094 elapsed seconds
Timing for main: time 2019-11-26_19:00:30 on domain   1:    0.21001 elapsed seconds
Timing for main: time 2019-11-26_19:00:45 on domain   1:    0.21942 elapsed seconds
Timing for main: time 2019-11-26_19:01:00 on domain   1:    0.21156 elapsed seconds
Timing for main: time 2019-11-26_19:01:15 on domain   1:    0.21934 elapsed seconds
Timing for main: time 2019-11-26_19:01:30 on domain   1:    0.21056 elapsed seconds
Timing for main: time 2019-11-26_19:01:45 on domain   1:    0.21688 elapsed seconds
Timing for main: time 2019-11-26_19:02:00 on domain   1:    0.21090 elapsed seconds
Timing for main: time 2019-11-26_19:02:15 on domain   1:    0.21631 elapsed seconds
Timing for main: time 2019-11-26_19:02:30 on domain   1:    0.21073 elapsed seconds
Timing for main: time 2019-11-26_19:02:45 on domain   1:    0.21756 elapsed seconds
Timing for main: time 2019-11-26_19:03:00 on domain   1:    0.21023 elapsed seconds
Timing for main: time 2019-11-26_19:03:15 on domain   1:    0.21518 elapsed seconds
Timing for main: time 2019-11-26_19:03:30 on domain   1:    0.21156 elapsed seconds
Timing for main: time 2019-11-26_19:03:45 on domain   1:    0.21436 elapsed seconds
Timing for main: time 2019-11-26_19:04:00 on domain   1:    0.21111 elapsed seconds
Timing for main: time 2019-11-26_19:04:15 on domain   1:    0.21444 elapsed seconds
Timing for main: time 2019-11-26_19:04:30 on domain   1:    0.21193 elapsed seconds
Timing for main: time 2019-11-26_19:04:45 on domain   1:    0.21380 elapsed seconds
Timing for main: time 2019-11-26_19:05:00 on domain   1:    0.21129 elapsed seconds
Timing for main: time 2019-11-26_19:05:15 on domain   1:    0.21490 elapsed seconds
Timing for main: time 2019-11-26_19:05:30 on domain   1:    0.21205 elapsed seconds
Timing for main: time 2019-11-26_19:05:45 on domain   1:    0.21571 elapsed seconds
Timing for main: time 2019-11-26_19:06:00 on domain   1:    0.21250 elapsed seconds
Timing for main: time 2019-11-26_19:06:15 on domain   1:    0.21537 elapsed seconds
Timing for main: time 2019-11-26_19:06:30 on domain   1:    0.21121 elapsed seconds
Timing for main: time 2019-11-26_19:06:45 on domain   1:    0.21283 elapsed seconds
Timing for main: time 2019-11-26_19:07:00 on domain   1:    0.21168 elapsed seconds
Timing for main: time 2019-11-26_19:07:15 on domain   1:    0.21456 elapsed seconds
Timing for main: time 2019-11-26_19:07:30 on domain   1:    0.21088 elapsed seconds
Timing for main: time 2019-11-26_19:07:45 on domain   1:    0.21404 elapsed seconds
Timing for main: time 2019-11-26_19:08:00 on domain   1:    0.21063 elapsed seconds
Timing for main: time 2019-11-26_19:08:15 on domain   1:    0.21538 elapsed seconds
Timing for main: time 2019-11-26_19:08:30 on domain   1:    0.21156 elapsed seconds
Timing for main: time 2019-11-26_19:08:45 on domain   1:    0.21563 elapsed seconds
Timing for main: time 2019-11-26_19:09:00 on domain   1:    0.21056 elapsed seconds
Timing for main: time 2019-11-26_19:09:15 on domain   1:    0.21535 elapsed seconds
Timing for main: time 2019-11-26_19:09:30 on domain   1:    0.21140 elapsed seconds
Timing for main: time 2019-11-26_19:09:45 on domain   1:    0.21498 elapsed seconds
Timing for main: time 2019-11-26_19:10:00 on domain   1:    0.21155 elapsed seconds
Timing for main: time 2019-11-26_19:10:15 on domain   1:    0.37280 elapsed seconds
Timing for main: time 2019-11-26_19:10:30 on domain   1:    0.21432 elapsed seconds
Timing for main: time 2019-11-26_19:10:45 on domain   1:    0.21461 elapsed seconds
Timing for main: time 2019-11-26_19:11:00 on domain   1:    0.21334 elapsed seconds
Timing for main: time 2019-11-26_19:11:15 on domain   1:    0.21483 elapsed seconds
Timing for main: time 2019-11-26_19:11:30 on domain   1:    0.21394 elapsed seconds
Timing for main: time 2019-11-26_19:11:45 on domain   1:    0.21226 elapsed seconds
Timing for main: time 2019-11-26_19:12:00 on domain   1:    0.21298 elapsed seconds
Timing for main: time 2019-11-26_19:12:15 on domain   1:    0.21479 elapsed seconds
Timing for main: time 2019-11-26_19:12:30 on domain   1:    0.21557 elapsed seconds
Timing for main: time 2019-11-26_19:12:45 on domain   1:    0.21430 elapsed seconds
Timing for main: time 2019-11-26_19:13:00 on domain   1:    0.21602 elapsed seconds
Timing for main: time 2019-11-26_19:13:15 on domain   1:    0.21582 elapsed seconds
Timing for main: time 2019-11-26_19:13:30 on domain   1:    0.21329 elapsed seconds
Timing for main: time 2019-11-26_19:13:45 on domain   1:    0.21589 elapsed seconds
Timing for main: time 2019-11-26_19:14:00 on domain   1:    0.21343 elapsed seconds
Timing for main: time 2019-11-26_19:14:15 on domain   1:    0.21294 elapsed seconds
Timing for main: time 2019-11-26_19:14:30 on domain   1:    0.21259 elapsed seconds
Timing for main: time 2019-11-26_19:14:45 on domain   1:    0.21382 elapsed seconds
Timing for main: time 2019-11-26_19:15:00 on domain   1:    0.21399 elapsed seconds
Timing for main: time 2019-11-26_19:15:15 on domain   1:    0.21173 elapsed seconds
Timing for main: time 2019-11-26_19:15:30 on domain   1:    0.21324 elapsed seconds
Timing for main: time 2019-11-26_19:15:45 on domain   1:    0.21264 elapsed seconds
Timing for main: time 2019-11-26_19:16:00 on domain   1:    0.21142 elapsed seconds
Timing for main: time 2019-11-26_19:16:15 on domain   1:    0.21753 elapsed seconds
Timing for main: time 2019-11-26_19:16:30 on domain   1:    0.21411 elapsed seconds
Timing for main: time 2019-11-26_19:16:45 on domain   1:    0.21569 elapsed seconds
Timing for main: time 2019-11-26_19:17:00 on domain   1:    0.21548 elapsed seconds
Timing for main: time 2019-11-26_19:17:15 on domain   1:    0.21244 elapsed seconds
Timing for main: time 2019-11-26_19:17:30 on domain   1:    0.21437 elapsed seconds
Timing for main: time 2019-11-26_19:17:45 on domain   1:    0.21442 elapsed seconds
Timing for main: time 2019-11-26_19:18:00 on domain   1:    0.21203 elapsed seconds
Timing for main: time 2019-11-26_19:18:15 on domain   1:    0.21315 elapsed seconds
Timing for main: time 2019-11-26_19:18:30 on domain   1:    0.21191 elapsed seconds
Timing for main: time 2019-11-26_19:18:45 on domain   1:    0.21370 elapsed seconds
Timing for main: time 2019-11-26_19:19:00 on domain   1:    0.21244 elapsed seconds
Timing for main: time 2019-11-26_19:19:15 on domain   1:    0.21347 elapsed seconds
Timing for main: time 2019-11-26_19:19:30 on domain   1:    0.21340 elapsed seconds
Timing for main: time 2019-11-26_19:19:45 on domain   1:    0.21266 elapsed seconds
Timing for main: time 2019-11-26_19:20:00 on domain   1:    0.21242 elapsed seconds
Timing for main: time 2019-11-26_19:20:15 on domain   1:    0.36951 elapsed seconds
Timing for main: time 2019-11-26_19:20:30 on domain   1:    0.21064 elapsed seconds
Timing for main: time 2019-11-26_19:20:45 on domain   1:    0.21325 elapsed seconds
Timing for main: time 2019-11-26_19:21:00 on domain   1:    0.21125 elapsed seconds
Timing for main: time 2019-11-26_19:21:15 on domain   1:    0.21421 elapsed seconds
Timing for main: time 2019-11-26_19:21:30 on domain   1:    0.21113 elapsed seconds
Timing for main: time 2019-11-26_19:21:45 on domain   1:    0.21376 elapsed seconds
Timing for main: time 2019-11-26_19:22:00 on domain   1:    0.21266 elapsed seconds
Timing for main: time 2019-11-26_19:22:15 on domain   1:    0.21907 elapsed seconds
Timing for main: time 2019-11-26_19:22:30 on domain   1:    0.21260 elapsed seconds
Timing for main: time 2019-11-26_19:22:45 on domain   1:    0.21261 elapsed seconds
Timing for main: time 2019-11-26_19:23:00 on domain   1:    0.21244 elapsed seconds
Timing for main: time 2019-11-26_19:23:15 on domain   1:    0.21392 elapsed seconds
Timing for main: time 2019-11-26_19:23:30 on domain   1:    0.21151 elapsed seconds
Timing for main: time 2019-11-26_19:23:45 on domain   1:    0.21362 elapsed seconds
Timing for main: time 2019-11-26_19:24:00 on domain   1:    0.21176 elapsed seconds
Timing for main: time 2019-11-26_19:24:15 on domain   1:    0.21323 elapsed seconds
Timing for main: time 2019-11-26_19:24:30 on domain   1:    0.21203 elapsed seconds
Timing for main: time 2019-11-26_19:24:45 on domain   1:    0.21403 elapsed seconds
Timing for main: time 2019-11-26_19:25:00 on domain   1:    0.21388 elapsed seconds
Timing for main: time 2019-11-26_19:25:15 on domain   1:    0.21884 elapsed seconds
Timing for main: time 2019-11-26_19:25:30 on domain   1:    0.20873 elapsed seconds
Timing for main: time 2019-11-26_19:25:45 on domain   1:    0.21528 elapsed seconds
Timing for main: time 2019-11-26_19:26:00 on domain   1:    0.21106 elapsed seconds
Timing for main: time 2019-11-26_19:26:15 on domain   1:    0.21324 elapsed seconds
Timing for main: time 2019-11-26_19:26:30 on domain   1:    0.21279 elapsed seconds
Timing for main: time 2019-11-26_19:26:45 on domain   1:    0.21715 elapsed seconds
Timing for main: time 2019-11-26_19:27:00 on domain   1:    0.21086 elapsed seconds
Timing for main: time 2019-11-26_19:27:15 on domain   1:    0.21405 elapsed seconds
Timing for main: time 2019-11-26_19:27:30 on domain   1:    0.21111 elapsed seconds
Timing for main: time 2019-11-26_19:27:45 on domain   1:    0.21397 elapsed seconds
Timing for main: time 2019-11-26_19:28:00 on domain   1:    0.21138 elapsed seconds
Timing for main: time 2019-11-26_19:28:15 on domain   1:    0.21603 elapsed seconds
Timing for main: time 2019-11-26_19:28:30 on domain   1:    0.21302 elapsed seconds
Timing for main: time 2019-11-26_19:28:45 on domain   1:    0.21204 elapsed seconds
Timing for main: time 2019-11-26_19:29:00 on domain   1:    0.21166 elapsed seconds
Timing for main: time 2019-11-26_19:29:15 on domain   1:    0.21354 elapsed seconds
Timing for main: time 2019-11-26_19:29:30 on domain   1:    0.21173 elapsed seconds
Timing for main: time 2019-11-26_19:29:45 on domain   1:    0.21296 elapsed seconds
Timing for main: time 2019-11-26_19:30:00 on domain   1:    0.21109 elapsed seconds
Timing for main: time 2019-11-26_19:30:15 on domain   1:    0.37109 elapsed seconds
Timing for main: time 2019-11-26_19:30:30 on domain   1:    0.21297 elapsed seconds
Timing for main: time 2019-11-26_19:30:45 on domain   1:    0.21473 elapsed seconds
Timing for main: time 2019-11-26_19:31:00 on domain   1:    0.21243 elapsed seconds
Timing for main: time 2019-11-26_19:31:15 on domain   1:    0.21442 elapsed seconds
Timing for main: time 2019-11-26_19:31:30 on domain   1:    0.21192 elapsed seconds
Timing for main: time 2019-11-26_19:31:45 on domain   1:    0.21470 elapsed seconds
Timing for main: time 2019-11-26_19:32:00 on domain   1:    0.21264 elapsed seconds
Timing for main: time 2019-11-26_19:32:15 on domain   1:    0.21384 elapsed seconds
Timing for main: time 2019-11-26_19:32:30 on domain   1:    0.21162 elapsed seconds
Timing for main: time 2019-11-26_19:32:45 on domain   1:    0.21362 elapsed seconds
Timing for main: time 2019-11-26_19:33:00 on domain   1:    0.21325 elapsed seconds
Timing for main: time 2019-11-26_19:33:15 on domain   1:    0.21338 elapsed seconds
Timing for main: time 2019-11-26_19:33:30 on domain   1:    0.21070 elapsed seconds
Timing for main: time 2019-11-26_19:33:45 on domain   1:    0.21281 elapsed seconds
Timing for main: time 2019-11-26_19:34:00 on domain   1:    0.21145 elapsed seconds
Timing for main: time 2019-11-26_19:34:15 on domain   1:    0.21682 elapsed seconds
Timing for main: time 2019-11-26_19:34:30 on domain   1:    0.21091 elapsed seconds
Timing for main: time 2019-11-26_19:34:45 on domain   1:    0.21263 elapsed seconds
Timing for main: time 2019-11-26_19:35:00 on domain   1:    0.21253 elapsed seconds
Timing for main: time 2019-11-26_19:35:15 on domain   1:    0.21547 elapsed seconds
Timing for main: time 2019-11-26_19:35:30 on domain   1:    0.21169 elapsed seconds
Timing for main: time 2019-11-26_19:35:45 on domain   1:    0.21520 elapsed seconds
Timing for main: time 2019-11-26_19:36:00 on domain   1:    0.21266 elapsed seconds
Timing for main: time 2019-11-26_19:36:15 on domain   1:    0.21775 elapsed seconds
Timing for main: time 2019-11-26_19:36:30 on domain   1:    0.21226 elapsed seconds
Timing for main: time 2019-11-26_19:36:45 on domain   1:    0.21458 elapsed seconds
Timing for main: time 2019-11-26_19:37:00 on domain   1:    0.21252 elapsed seconds
Timing for main: time 2019-11-26_19:37:15 on domain   1:    0.21195 elapsed seconds
Timing for main: time 2019-11-26_19:37:30 on domain   1:    0.21142 elapsed seconds
Timing for main: time 2019-11-26_19:37:45 on domain   1:    0.21406 elapsed seconds
Timing for main: time 2019-11-26_19:38:00 on domain   1:    0.21239 elapsed seconds
Timing for main: time 2019-11-26_19:38:15 on domain   1:    0.21623 elapsed seconds
Timing for main: time 2019-11-26_19:38:30 on domain   1:    0.21133 elapsed seconds
Timing for main: time 2019-11-26_19:38:45 on domain   1:    0.21429 elapsed seconds
Timing for main: time 2019-11-26_19:39:00 on domain   1:    0.21064 elapsed seconds
Timing for main: time 2019-11-26_19:39:15 on domain   1:    0.21521 elapsed seconds
Timing for main: time 2019-11-26_19:39:30 on domain   1:    0.21166 elapsed seconds
Timing for main: time 2019-11-26_19:39:45 on domain   1:    0.21709 elapsed seconds
Timing for main: time 2019-11-26_19:40:00 on domain   1:    0.21131 elapsed seconds
Timing for main: time 2019-11-26_19:40:15 on domain   1:    0.36766 elapsed seconds
Timing for main: time 2019-11-26_19:40:30 on domain   1:    0.21497 elapsed seconds
Timing for main: time 2019-11-26_19:40:45 on domain   1:    0.21192 elapsed seconds
Timing for main: time 2019-11-26_19:41:00 on domain   1:    0.21736 elapsed seconds
Timing for main: time 2019-11-26_19:41:15 on domain   1:    0.21105 elapsed seconds
Timing for main: time 2019-11-26_19:41:30 on domain   1:    0.21646 elapsed seconds
Timing for main: time 2019-11-26_19:41:45 on domain   1:    0.21160 elapsed seconds
Timing for main: time 2019-11-26_19:42:00 on domain   1:    0.21573 elapsed seconds
Timing for main: time 2019-11-26_19:42:15 on domain   1:    0.21098 elapsed seconds
Timing for main: time 2019-11-26_19:42:30 on domain   1:    0.21286 elapsed seconds
Timing for main: time 2019-11-26_19:42:45 on domain   1:    0.21099 elapsed seconds
Timing for main: time 2019-11-26_19:43:00 on domain   1:    0.21553 elapsed seconds
Timing for main: time 2019-11-26_19:43:15 on domain   1:    0.21125 elapsed seconds
Timing for main: time 2019-11-26_19:43:30 on domain   1:    0.21431 elapsed seconds
Timing for main: time 2019-11-26_19:43:45 on domain   1:    0.21106 elapsed seconds
Timing for main: time 2019-11-26_19:44:00 on domain   1:    0.21500 elapsed seconds
Timing for main: time 2019-11-26_19:44:15 on domain   1:    0.21109 elapsed seconds
Timing for main: time 2019-11-26_19:44:30 on domain   1:    0.21526 elapsed seconds
Timing for main: time 2019-11-26_19:44:45 on domain   1:    0.21244 elapsed seconds
Timing for main: time 2019-11-26_19:45:00 on domain   1:    0.21411 elapsed seconds
Timing for main: time 2019-11-26_19:45:15 on domain   1:    0.21258 elapsed seconds
Timing for main: time 2019-11-26_19:45:30 on domain   1:    0.21427 elapsed seconds
Timing for main: time 2019-11-26_19:45:45 on domain   1:    0.21103 elapsed seconds
Timing for main: time 2019-11-26_19:46:00 on domain   1:    0.21492 elapsed seconds
Timing for main: time 2019-11-26_19:46:15 on domain   1:    0.20972 elapsed seconds
Timing for main: time 2019-11-26_19:46:30 on domain   1:    0.21325 elapsed seconds
Timing for main: time 2019-11-26_19:46:45 on domain   1:    0.21129 elapsed seconds
Timing for main: time 2019-11-26_19:47:00 on domain   1:    0.21403 elapsed seconds
Timing for main: time 2019-11-26_19:47:15 on domain   1:    0.21150 elapsed seconds
Timing for main: time 2019-11-26_19:47:30 on domain   1:    0.21302 elapsed seconds
Timing for main: time 2019-11-26_19:47:45 on domain   1:    0.21151 elapsed seconds
Timing for main: time 2019-11-26_19:48:00 on domain   1:    0.21294 elapsed seconds
Timing for main: time 2019-11-26_19:48:15 on domain   1:    0.21202 elapsed seconds
Timing for main: time 2019-11-26_19:48:30 on domain   1:    0.21191 elapsed seconds
Timing for main: time 2019-11-26_19:48:45 on domain   1:    0.21121 elapsed seconds
Timing for main: time 2019-11-26_19:49:00 on domain   1:    0.21241 elapsed seconds
Timing for main: time 2019-11-26_19:49:15 on domain   1:    0.21175 elapsed seconds
Timing for main: time 2019-11-26_19:49:30 on domain   1:    0.21281 elapsed seconds
Timing for main: time 2019-11-26_19:49:45 on domain   1:    0.21093 elapsed seconds
Timing for main: time 2019-11-26_19:50:00 on domain   1:    0.21448 elapsed seconds
Timing for main: time 2019-11-26_19:50:15 on domain   1:    0.37104 elapsed seconds
Timing for main: time 2019-11-26_19:50:30 on domain   1:    0.21245 elapsed seconds
Timing for main: time 2019-11-26_19:50:45 on domain   1:    0.21376 elapsed seconds
Timing for main: time 2019-11-26_19:51:00 on domain   1:    0.21437 elapsed seconds
Timing for main: time 2019-11-26_19:51:15 on domain   1:    0.21224 elapsed seconds
Timing for main: time 2019-11-26_19:51:30 on domain   1:    0.21212 elapsed seconds
Timing for main: time 2019-11-26_19:51:45 on domain   1:    0.21432 elapsed seconds
Timing for main: time 2019-11-26_19:52:00 on domain   1:    0.21201 elapsed seconds
Timing for main: time 2019-11-26_19:52:15 on domain   1:    0.21221 elapsed seconds
Timing for main: time 2019-11-26_19:52:30 on domain   1:    0.21294 elapsed seconds
Timing for main: time 2019-11-26_19:52:45 on domain   1:    0.21413 elapsed seconds
Timing for main: time 2019-11-26_19:53:00 on domain   1:    0.21264 elapsed seconds
Timing for main: time 2019-11-26_19:53:15 on domain   1:    0.21312 elapsed seconds
Timing for main: time 2019-11-26_19:53:30 on domain   1:    0.21445 elapsed seconds
Timing for main: time 2019-11-26_19:53:45 on domain   1:    0.21413 elapsed seconds
Timing for main: time 2019-11-26_19:54:00 on domain   1:    0.21378 elapsed seconds
Timing for main: time 2019-11-26_19:54:15 on domain   1:    0.21234 elapsed seconds
Timing for main: time 2019-11-26_19:54:30 on domain   1:    0.21226 elapsed seconds
Timing for main: time 2019-11-26_19:54:45 on domain   1:    0.21387 elapsed seconds
Timing for main: time 2019-11-26_19:55:00 on domain   1:    0.21193 elapsed seconds
Timing for main: time 2019-11-26_19:55:15 on domain   1:    0.21317 elapsed seconds
Timing for main: time 2019-11-26_19:55:30 on domain   1:    0.21152 elapsed seconds
Timing for main: time 2019-11-26_19:55:45 on domain   1:    0.21180 elapsed seconds
Timing for main: time 2019-11-26_19:56:00 on domain   1:    0.21370 elapsed seconds
Timing for main: time 2019-11-26_19:56:15 on domain   1:    0.21314 elapsed seconds
Timing for main: time 2019-11-26_19:56:30 on domain   1:    0.21287 elapsed seconds
Timing for main: time 2019-11-26_19:56:45 on domain   1:    0.21363 elapsed seconds
Timing for main: time 2019-11-26_19:57:00 on domain   1:    0.21212 elapsed seconds
Timing for main: time 2019-11-26_19:57:15 on domain   1:    0.21374 elapsed seconds
Timing for main: time 2019-11-26_19:57:30 on domain   1:    0.21269 elapsed seconds
Timing for main: time 2019-11-26_19:57:45 on domain   1:    0.21241 elapsed seconds
Timing for main: time 2019-11-26_19:58:00 on domain   1:    0.21273 elapsed seconds
Timing for main: time 2019-11-26_19:58:15 on domain   1:    0.35209 elapsed seconds
Timing for main: time 2019-11-26_19:58:30 on domain   1:    0.21245 elapsed seconds
Timing for main: time 2019-11-26_19:58:45 on domain   1:    0.21365 elapsed seconds
Timing for main: time 2019-11-26_19:59:00 on domain   1:    0.31886 elapsed seconds
Timing for main: time 2019-11-26_19:59:15 on domain   1:    0.21214 elapsed seconds
Timing for main: time 2019-11-26_19:59:30 on domain   1:    0.21278 elapsed seconds
Timing for main: time 2019-11-26_19:59:45 on domain   1:    0.21333 elapsed seconds
Timing for main: time 2019-11-26_20:00:00 on domain   1:    0.21371 elapsed seconds
Timing for Writing wrfout_d01_2019-11-26_20:00:00 for domain        1:   20.97499 elapsed seconds
Timing for main: time 2019-11-26_20:00:15 on domain   1:   21.97873 elapsed seconds
Timing for main: time 2019-11-26_20:00:30 on domain   1:    0.24814 elapsed seconds
Timing for main: time 2019-11-26_20:00:45 on domain   1:    0.21056 elapsed seconds
Timing for main: time 2019-11-26_20:01:00 on domain   1:    0.21380 elapsed seconds
Timing for main: time 2019-11-26_20:01:15 on domain   1:    0.21161 elapsed seconds
Timing for main: time 2019-11-26_20:01:30 on domain   1:    0.21360 elapsed seconds
Timing for main: time 2019-11-26_20:01:45 on domain   1:    0.21156 elapsed seconds
Timing for main: time 2019-11-26_20:02:00 on domain   1:    0.21490 elapsed seconds
Timing for main: time 2019-11-26_20:02:15 on domain   1:    0.21241 elapsed seconds
Timing for main: time 2019-11-26_20:02:30 on domain   1:    0.21133 elapsed seconds
Timing for main: time 2019-11-26_20:02:45 on domain   1:    0.21194 elapsed seconds
Timing for main: time 2019-11-26_20:03:00 on domain   1:    0.21301 elapsed seconds
Timing for main: time 2019-11-26_20:03:15 on domain   1:    0.21109 elapsed seconds
Timing for main: time 2019-11-26_20:03:30 on domain   1:    0.21232 elapsed seconds
Timing for main: time 2019-11-26_20:03:45 on domain   1:    0.21009 elapsed seconds
Timing for main: time 2019-11-26_20:04:00 on domain   1:    0.21261 elapsed seconds
Timing for main: time 2019-11-26_20:04:15 on domain   1:    0.21212 elapsed seconds
Timing for main: time 2019-11-26_20:04:30 on domain   1:    0.21386 elapsed seconds
Timing for main: time 2019-11-26_20:04:45 on domain   1:    0.21155 elapsed seconds
Timing for main: time 2019-11-26_20:05:00 on domain   1:    0.21338 elapsed seconds
Timing for main: time 2019-11-26_20:05:15 on domain   1:    0.21194 elapsed seconds
Timing for main: time 2019-11-26_20:05:30 on domain   1:    0.21242 elapsed seconds
Timing for main: time 2019-11-26_20:05:45 on domain   1:    0.21153 elapsed seconds
Timing for main: time 2019-11-26_20:06:00 on domain   1:    0.21265 elapsed seconds
Timing for main: time 2019-11-26_20:06:15 on domain   1:    0.21160 elapsed seconds
Timing for main: time 2019-11-26_20:06:30 on domain   1:    0.21387 elapsed seconds
Timing for main: time 2019-11-26_20:06:45 on domain   1:    0.21139 elapsed seconds
Timing for main: time 2019-11-26_20:07:00 on domain   1:    0.21387 elapsed seconds
Timing for main: time 2019-11-26_20:07:15 on domain   1:    0.21101 elapsed seconds
Timing for main: time 2019-11-26_20:07:30 on domain   1:    0.21223 elapsed seconds
Timing for main: time 2019-11-26_20:07:45 on domain   1:    0.21110 elapsed seconds
Timing for main: time 2019-11-26_20:08:00 on domain   1:    0.21273 elapsed seconds
Timing for main: time 2019-11-26_20:08:15 on domain   1:    0.21092 elapsed seconds
Timing for main: time 2019-11-26_20:08:30 on domain   1:    0.21203 elapsed seconds
Timing for main: time 2019-11-26_20:08:45 on domain   1:    0.21330 elapsed seconds
Timing for main: time 2019-11-26_20:09:00 on domain   1:    0.21442 elapsed seconds
Timing for main: time 2019-11-26_20:09:15 on domain   1:    0.21055 elapsed seconds
Timing for main: time 2019-11-26_20:09:30 on domain   1:    0.21380 elapsed seconds
Timing for main: time 2019-11-26_20:09:45 on domain   1:    0.21076 elapsed seconds
Timing for main: time 2019-11-26_20:10:00 on domain   1:    0.21376 elapsed seconds
Timing for main: time 2019-11-26_20:10:15 on domain   1:    0.36777 elapsed seconds
Timing for main: time 2019-11-26_20:10:30 on domain   1:    0.21268 elapsed seconds
Timing for main: time 2019-11-26_20:10:45 on domain   1:    0.21272 elapsed seconds
Timing for main: time 2019-11-26_20:11:00 on domain   1:    0.21372 elapsed seconds
Timing for main: time 2019-11-26_20:11:15 on domain   1:    0.21242 elapsed seconds
Timing for main: time 2019-11-26_20:11:30 on domain   1:    0.21228 elapsed seconds
Timing for main: time 2019-11-26_20:11:45 on domain   1:    0.21391 elapsed seconds
Timing for main: time 2019-11-26_20:12:00 on domain   1:    0.21295 elapsed seconds
Timing for main: time 2019-11-26_20:12:15 on domain   1:    0.21255 elapsed seconds
Timing for main: time 2019-11-26_20:12:30 on domain   1:    0.21318 elapsed seconds
Timing for main: time 2019-11-26_20:12:45 on domain   1:    0.21329 elapsed seconds
Timing for main: time 2019-11-26_20:13:00 on domain   1:    0.21368 elapsed seconds
Timing for main: time 2019-11-26_20:13:15 on domain   1:    0.21329 elapsed seconds
Timing for main: time 2019-11-26_20:13:30 on domain   1:    0.21451 elapsed seconds
Timing for main: time 2019-11-26_20:13:45 on domain   1:    0.21448 elapsed seconds
Timing for main: time 2019-11-26_20:14:00 on domain   1:    0.21368 elapsed seconds
Timing for main: time 2019-11-26_20:14:15 on domain   1:    0.21311 elapsed seconds
Timing for main: time 2019-11-26_20:14:30 on domain   1:    0.21415 elapsed seconds
Timing for main: time 2019-11-26_20:14:45 on domain   1:    0.21324 elapsed seconds
Timing for main: time 2019-11-26_20:15:00 on domain   1:    0.21275 elapsed seconds
Timing for main: time 2019-11-26_20:15:15 on domain   1:    0.21492 elapsed seconds
Timing for main: time 2019-11-26_20:15:30 on domain   1:    0.21329 elapsed seconds
Timing for main: time 2019-11-26_20:15:45 on domain   1:    0.21240 elapsed seconds
Timing for main: time 2019-11-26_20:16:00 on domain   1:    0.21204 elapsed seconds
Timing for main: time 2019-11-26_20:16:15 on domain   1:    0.21137 elapsed seconds
Timing for main: time 2019-11-26_20:16:30 on domain   1:    0.21157 elapsed seconds
Timing for main: time 2019-11-26_20:16:45 on domain   1:    0.21285 elapsed seconds
Timing for main: time 2019-11-26_20:17:00 on domain   1:    0.21362 elapsed seconds
Timing for main: time 2019-11-26_20:17:15 on domain   1:    0.21334 elapsed seconds
Timing for main: time 2019-11-26_20:17:30 on domain   1:    0.21401 elapsed seconds
Timing for main: time 2019-11-26_20:17:45 on domain   1:    0.21216 elapsed seconds
Timing for main: time 2019-11-26_20:18:00 on domain   1:    0.21355 elapsed seconds
Timing for main: time 2019-11-26_20:18:15 on domain   1:    0.21431 elapsed seconds
Timing for main: time 2019-11-26_20:18:30 on domain   1:    0.21145 elapsed seconds
Timing for main: time 2019-11-26_20:18:45 on domain   1:    0.21252 elapsed seconds
Timing for main: time 2019-11-26_20:19:00 on domain   1:    0.21379 elapsed seconds
Timing for main: time 2019-11-26_20:19:15 on domain   1:    0.21353 elapsed seconds
Timing for main: time 2019-11-26_20:19:30 on domain   1:    0.21269 elapsed seconds
Timing for main: time 2019-11-26_20:19:45 on domain   1:    0.21296 elapsed seconds
Timing for main: time 2019-11-26_20:20:00 on domain   1:    0.21245 elapsed seconds
Timing for main: time 2019-11-26_20:20:15 on domain   1:    0.36862 elapsed seconds
Timing for main: time 2019-11-26_20:20:30 on domain   1:    0.21453 elapsed seconds
Timing for main: time 2019-11-26_20:20:45 on domain   1:    0.21185 elapsed seconds
Timing for main: time 2019-11-26_20:21:00 on domain   1:    0.21220 elapsed seconds
Timing for main: time 2019-11-26_20:21:15 on domain   1:    0.21110 elapsed seconds
Timing for main: time 2019-11-26_20:21:30 on domain   1:    0.21437 elapsed seconds
Timing for main: time 2019-11-26_20:21:45 on domain   1:    0.21083 elapsed seconds
Timing for main: time 2019-11-26_20:22:00 on domain   1:    0.21345 elapsed seconds
Timing for main: time 2019-11-26_20:22:15 on domain   1:    0.21139 elapsed seconds
Timing for main: time 2019-11-26_20:22:30 on domain   1:    0.21350 elapsed seconds
Timing for main: time 2019-11-26_20:22:45 on domain   1:    0.21024 elapsed seconds
Timing for main: time 2019-11-26_20:23:00 on domain   1:    0.21486 elapsed seconds
Timing for main: time 2019-11-26_20:23:15 on domain   1:    0.21082 elapsed seconds
Timing for main: time 2019-11-26_20:23:30 on domain   1:    0.21610 elapsed seconds
Timing for main: time 2019-11-26_20:23:45 on domain   1:    0.21109 elapsed seconds
Timing for main: time 2019-11-26_20:24:00 on domain   1:    0.21782 elapsed seconds
Timing for main: time 2019-11-26_20:24:15 on domain   1:    0.20851 elapsed seconds
Timing for main: time 2019-11-26_20:24:30 on domain   1:    0.21399 elapsed seconds
Timing for main: time 2019-11-26_20:24:45 on domain   1:    0.20935 elapsed seconds
Timing for main: time 2019-11-26_20:25:00 on domain   1:    0.21536 elapsed seconds
Timing for main: time 2019-11-26_20:25:15 on domain   1:    0.21091 elapsed seconds
Timing for main: time 2019-11-26_20:25:30 on domain   1:    0.21510 elapsed seconds
Timing for main: time 2019-11-26_20:25:45 on domain   1:    0.21141 elapsed seconds
Timing for main: time 2019-11-26_20:26:00 on domain   1:    0.21505 elapsed seconds
Timing for main: time 2019-11-26_20:26:15 on domain   1:    0.21334 elapsed seconds
Timing for main: time 2019-11-26_20:26:30 on domain   1:    0.21604 elapsed seconds
Timing for main: time 2019-11-26_20:26:45 on domain   1:    0.21172 elapsed seconds
Timing for main: time 2019-11-26_20:27:00 on domain   1:    0.21469 elapsed seconds
Timing for main: time 2019-11-26_20:27:15 on domain   1:    0.21116 elapsed seconds
Timing for main: time 2019-11-26_20:27:30 on domain   1:    0.21442 elapsed seconds
Timing for main: time 2019-11-26_20:27:45 on domain   1:    0.21295 elapsed seconds
Timing for main: time 2019-11-26_20:28:00 on domain   1:    0.21353 elapsed seconds
Timing for main: time 2019-11-26_20:28:15 on domain   1:    0.21195 elapsed seconds
Timing for main: time 2019-11-26_20:28:30 on domain   1:    0.21307 elapsed seconds
Timing for main: time 2019-11-26_20:28:45 on domain   1:    0.20925 elapsed seconds
Timing for main: time 2019-11-26_20:29:00 on domain   1:    0.21423 elapsed seconds
Timing for main: time 2019-11-26_20:29:15 on domain   1:    0.21123 elapsed seconds
Timing for main: time 2019-11-26_20:29:30 on domain   1:    0.21352 elapsed seconds
Timing for main: time 2019-11-26_20:29:45 on domain   1:    0.21046 elapsed seconds
Timing for main: time 2019-11-26_20:30:00 on domain   1:    0.21410 elapsed seconds
Timing for main: time 2019-11-26_20:30:15 on domain   1:    0.36779 elapsed seconds
Timing for main: time 2019-11-26_20:30:30 on domain   1:    0.21239 elapsed seconds
Timing for main: time 2019-11-26_20:30:45 on domain   1:    0.21031 elapsed seconds
Timing for main: time 2019-11-26_20:31:00 on domain   1:    0.21395 elapsed seconds
Timing for main: time 2019-11-26_20:31:15 on domain   1:    0.21137 elapsed seconds
Timing for main: time 2019-11-26_20:31:30 on domain   1:    0.21405 elapsed seconds
Timing for main: time 2019-11-26_20:31:45 on domain   1:    0.21162 elapsed seconds
Timing for main: time 2019-11-26_20:32:00 on domain   1:    0.21546 elapsed seconds
Timing for main: time 2019-11-26_20:32:15 on domain   1:    0.21140 elapsed seconds
Timing for main: time 2019-11-26_20:32:30 on domain   1:    0.21517 elapsed seconds
Timing for main: time 2019-11-26_20:32:45 on domain   1:    0.21086 elapsed seconds
Timing for main: time 2019-11-26_20:33:00 on domain   1:    0.21406 elapsed seconds
Timing for main: time 2019-11-26_20:33:15 on domain   1:    0.21026 elapsed seconds
Timing for main: time 2019-11-26_20:33:30 on domain   1:    0.21344 elapsed seconds
Timing for main: time 2019-11-26_20:33:45 on domain   1:    0.21048 elapsed seconds
Timing for main: time 2019-11-26_20:34:00 on domain   1:    0.21316 elapsed seconds
Timing for main: time 2019-11-26_20:34:15 on domain   1:    0.21140 elapsed seconds
Timing for main: time 2019-11-26_20:34:30 on domain   1:    0.21275 elapsed seconds
Timing for main: time 2019-11-26_20:34:45 on domain   1:    0.21179 elapsed seconds
Timing for main: time 2019-11-26_20:35:00 on domain   1:    0.21339 elapsed seconds
Timing for main: time 2019-11-26_20:35:15 on domain   1:    0.21171 elapsed seconds
Timing for main: time 2019-11-26_20:35:30 on domain   1:    0.21341 elapsed seconds
Timing for main: time 2019-11-26_20:35:45 on domain   1:    0.21079 elapsed seconds
Timing for main: time 2019-11-26_20:36:00 on domain   1:    0.21271 elapsed seconds
Timing for main: time 2019-11-26_20:36:15 on domain   1:    0.20964 elapsed seconds
Timing for main: time 2019-11-26_20:36:30 on domain   1:    0.21329 elapsed seconds
Timing for main: time 2019-11-26_20:36:45 on domain   1:    0.21129 elapsed seconds
Timing for main: time 2019-11-26_20:37:00 on domain   1:    0.21443 elapsed seconds
Timing for main: time 2019-11-26_20:37:15 on domain   1:    0.21121 elapsed seconds
Timing for main: time 2019-11-26_20:37:30 on domain   1:    0.21374 elapsed seconds
Timing for main: time 2019-11-26_20:37:45 on domain   1:    0.21293 elapsed seconds
Timing for main: time 2019-11-26_20:38:00 on domain   1:    0.21364 elapsed seconds
Timing for main: time 2019-11-26_20:38:15 on domain   1:    0.21154 elapsed seconds
Timing for main: time 2019-11-26_20:38:30 on domain   1:    0.21366 elapsed seconds
Timing for main: time 2019-11-26_20:38:45 on domain   1:    0.21161 elapsed seconds
Timing for main: time 2019-11-26_20:39:00 on domain   1:    0.21365 elapsed seconds
Timing for main: time 2019-11-26_20:39:15 on domain   1:    0.21019 elapsed seconds
Timing for main: time 2019-11-26_20:39:30 on domain   1:    0.21393 elapsed seconds
Timing for main: time 2019-11-26_20:39:45 on domain   1:    0.21152 elapsed seconds
Timing for main: time 2019-11-26_20:40:00 on domain   1:    0.21421 elapsed seconds
Timing for main: time 2019-11-26_20:40:15 on domain   1:    0.36969 elapsed seconds
Timing for main: time 2019-11-26_20:40:30 on domain   1:    0.21346 elapsed seconds
Timing for main: time 2019-11-26_20:40:45 on domain   1:    0.21332 elapsed seconds
Timing for main: time 2019-11-26_20:41:00 on domain   1:    0.21348 elapsed seconds
Timing for main: time 2019-11-26_20:41:15 on domain   1:    0.21337 elapsed seconds
Timing for main: time 2019-11-26_20:41:30 on domain   1:    0.21244 elapsed seconds
Timing for main: time 2019-11-26_20:41:45 on domain   1:    0.21432 elapsed seconds
Timing for main: time 2019-11-26_20:42:00 on domain   1:    0.21304 elapsed seconds
Timing for main: time 2019-11-26_20:42:15 on domain   1:    0.21178 elapsed seconds
Timing for main: time 2019-11-26_20:42:30 on domain   1:    0.21289 elapsed seconds
Timing for main: time 2019-11-26_20:42:45 on domain   1:    0.21380 elapsed seconds
Timing for main: time 2019-11-26_20:43:00 on domain   1:    0.21402 elapsed seconds
Timing for main: time 2019-11-26_20:43:15 on domain   1:    0.21240 elapsed seconds
Timing for main: time 2019-11-26_20:43:30 on domain   1:    0.21481 elapsed seconds
Timing for main: time 2019-11-26_20:43:45 on domain   1:    0.21367 elapsed seconds
Timing for main: time 2019-11-26_20:44:00 on domain   1:    0.21388 elapsed seconds
Timing for main: time 2019-11-26_20:44:15 on domain   1:    0.21338 elapsed seconds
Timing for main: time 2019-11-26_20:44:30 on domain   1:    0.21457 elapsed seconds
Timing for main: time 2019-11-26_20:44:45 on domain   1:    0.21393 elapsed seconds
Timing for main: time 2019-11-26_20:45:00 on domain   1:    0.21387 elapsed seconds
Timing for main: time 2019-11-26_20:45:15 on domain   1:    0.21443 elapsed seconds
Timing for main: time 2019-11-26_20:45:30 on domain   1:    0.21236 elapsed seconds
Timing for main: time 2019-11-26_20:45:45 on domain   1:    0.21378 elapsed seconds
Timing for main: time 2019-11-26_20:46:00 on domain   1:    0.21252 elapsed seconds
Timing for main: time 2019-11-26_20:46:15 on domain   1:    0.21416 elapsed seconds
Timing for main: time 2019-11-26_20:46:30 on domain   1:    0.21157 elapsed seconds
Timing for main: time 2019-11-26_20:46:45 on domain   1:    0.21227 elapsed seconds
Timing for main: time 2019-11-26_20:47:00 on domain   1:    0.21286 elapsed seconds
Timing for main: time 2019-11-26_20:47:15 on domain   1:    0.21379 elapsed seconds
Timing for main: time 2019-11-26_20:47:30 on domain   1:    0.21213 elapsed seconds
Timing for main: time 2019-11-26_20:47:45 on domain   1:    0.21286 elapsed seconds
Timing for main: time 2019-11-26_20:48:00 on domain   1:    0.21404 elapsed seconds
Timing for main: time 2019-11-26_20:48:15 on domain   1:    0.21340 elapsed seconds
Timing for main: time 2019-11-26_20:48:30 on domain   1:    0.21329 elapsed seconds
Timing for main: time 2019-11-26_20:48:45 on domain   1:    0.21395 elapsed seconds
Timing for main: time 2019-11-26_20:49:00 on domain   1:    0.21253 elapsed seconds
Timing for main: time 2019-11-26_20:49:15 on domain   1:    0.21402 elapsed seconds
Timing for main: time 2019-11-26_20:49:30 on domain   1:    0.21415 elapsed seconds
Timing for main: time 2019-11-26_20:49:45 on domain   1:    0.21276 elapsed seconds
Timing for main: time 2019-11-26_20:50:00 on domain   1:    0.21205 elapsed seconds
Timing for main: time 2019-11-26_20:50:15 on domain   1:    0.36886 elapsed seconds
Timing for main: time 2019-11-26_20:50:30 on domain   1:    0.21275 elapsed seconds
Timing for main: time 2019-11-26_20:50:45 on domain   1:    0.21321 elapsed seconds
Timing for main: time 2019-11-26_20:51:00 on domain   1:    0.21370 elapsed seconds
Timing for main: time 2019-11-26_20:51:15 on domain   1:    0.21344 elapsed seconds
Timing for main: time 2019-11-26_20:51:30 on domain   1:    0.21376 elapsed seconds
Timing for main: time 2019-11-26_20:51:45 on domain   1:    0.21364 elapsed seconds
Timing for main: time 2019-11-26_20:52:00 on domain   1:    0.21388 elapsed seconds
Timing for main: time 2019-11-26_20:52:15 on domain   1:    0.21448 elapsed seconds
Timing for main: time 2019-11-26_20:52:30 on domain   1:    0.21240 elapsed seconds
Timing for main: time 2019-11-26_20:52:45 on domain   1:    0.21410 elapsed seconds
Timing for main: time 2019-11-26_20:53:00 on domain   1:    0.21282 elapsed seconds
Timing for main: time 2019-11-26_20:53:15 on domain   1:    0.21241 elapsed seconds
Timing for main: time 2019-11-26_20:53:30 on domain   1:    0.21420 elapsed seconds
Timing for main: time 2019-11-26_20:53:45 on domain   1:    0.21335 elapsed seconds
Timing for main: time 2019-11-26_20:54:00 on domain   1:    0.21295 elapsed seconds
Timing for main: time 2019-11-26_20:54:15 on domain   1:    0.21301 elapsed seconds
Timing for main: time 2019-11-26_20:54:30 on domain   1:    0.21269 elapsed seconds
Timing for main: time 2019-11-26_20:54:45 on domain   1:    0.21347 elapsed seconds
Timing for main: time 2019-11-26_20:55:00 on domain   1:    0.21230 elapsed seconds
Timing for main: time 2019-11-26_20:55:15 on domain   1:    0.21361 elapsed seconds
Timing for main: time 2019-11-26_20:55:30 on domain   1:    0.21437 elapsed seconds
Timing for main: time 2019-11-26_20:55:45 on domain   1:    0.21282 elapsed seconds
Timing for main: time 2019-11-26_20:56:00 on domain   1:    0.21222 elapsed seconds
Timing for main: time 2019-11-26_20:56:15 on domain   1:    0.21395 elapsed seconds
Timing for main: time 2019-11-26_20:56:30 on domain   1:    0.21451 elapsed seconds
Timing for main: time 2019-11-26_20:56:45 on domain   1:    0.21315 elapsed seconds
Timing for main: time 2019-11-26_20:57:00 on domain   1:    0.21284 elapsed seconds
Timing for main: time 2019-11-26_20:57:15 on domain   1:    0.24599 elapsed seconds
Timing for main: time 2019-11-26_20:57:30 on domain   1:    0.21475 elapsed seconds
Timing for main: time 2019-11-26_20:57:45 on domain   1:    0.21328 elapsed seconds
Timing for main: time 2019-11-26_20:58:00 on domain   1:    0.21327 elapsed seconds
Timing for main: time 2019-11-26_20:58:15 on domain   1:    0.21288 elapsed seconds
Timing for main: time 2019-11-26_20:58:30 on domain   1:    0.21368 elapsed seconds
Timing for main: time 2019-11-26_20:58:45 on domain   1:    0.21315 elapsed seconds
Timing for main: time 2019-11-26_20:59:00 on domain   1:    0.21321 elapsed seconds
Timing for main: time 2019-11-26_20:59:15 on domain   1:    0.21257 elapsed seconds
Timing for main: time 2019-11-26_20:59:30 on domain   1:    0.21214 elapsed seconds
Timing for main: time 2019-11-26_20:59:45 on domain   1:    0.21240 elapsed seconds
Timing for main: time 2019-11-26_21:00:00 on domain   1:    0.21289 elapsed seconds
Timing for Writing wrfout_d01_2019-11-26_21:00:00 for domain        1:   19.51533 elapsed seconds
d01 2019-11-26_21:00:00  Input data is acceptable to use: wrfbdy_d01
Timing for processing lateral boundary for domain        1:    1.48611 elapsed seconds
Timing for main: time 2019-11-26_21:00:15 on domain   1:   21.38812 elapsed seconds
Timing for main: time 2019-11-26_21:00:30 on domain   1:    0.21242 elapsed seconds
Timing for main: time 2019-11-26_21:00:45 on domain   1:    0.21288 elapsed seconds
Timing for main: time 2019-11-26_21:01:00 on domain   1:    0.21292 elapsed seconds
Timing for main: time 2019-11-26_21:01:15 on domain   1:    0.21368 elapsed seconds
Timing for main: time 2019-11-26_21:01:30 on domain   1:    0.21324 elapsed seconds
Timing for main: time 2019-11-26_21:01:45 on domain   1:    0.21330 elapsed seconds
Timing for main: time 2019-11-26_21:02:00 on domain   1:    0.21295 elapsed seconds
Timing for main: time 2019-11-26_21:02:15 on domain   1:    0.21463 elapsed seconds
Timing for main: time 2019-11-26_21:02:30 on domain   1:    0.21306 elapsed seconds
Timing for main: time 2019-11-26_21:02:45 on domain   1:    0.21422 elapsed seconds
Timing for main: time 2019-11-26_21:03:00 on domain   1:    0.21289 elapsed seconds
Timing for main: time 2019-11-26_21:03:15 on domain   1:    0.21165 elapsed seconds
Timing for main: time 2019-11-26_21:03:30 on domain   1:    0.21249 elapsed seconds
Timing for main: time 2019-11-26_21:03:45 on domain   1:    0.21111 elapsed seconds
Timing for main: time 2019-11-26_21:04:00 on domain   1:    0.21297 elapsed seconds
Timing for main: time 2019-11-26_21:04:15 on domain   1:    0.21245 elapsed seconds
Timing for main: time 2019-11-26_21:04:30 on domain   1:    0.21311 elapsed seconds
Timing for main: time 2019-11-26_21:04:45 on domain   1:    0.21282 elapsed seconds
Timing for main: time 2019-11-26_21:05:00 on domain   1:    0.21268 elapsed seconds
Timing for main: time 2019-11-26_21:05:15 on domain   1:    0.21219 elapsed seconds
Timing for main: time 2019-11-26_21:05:30 on domain   1:    0.21292 elapsed seconds
Timing for main: time 2019-11-26_21:05:45 on domain   1:    0.21340 elapsed seconds
Timing for main: time 2019-11-26_21:06:00 on domain   1:    0.21304 elapsed seconds
Timing for main: time 2019-11-26_21:06:15 on domain   1:    0.21371 elapsed seconds
Timing for main: time 2019-11-26_21:06:30 on domain   1:    0.21304 elapsed seconds
Timing for main: time 2019-11-26_21:06:45 on domain   1:    0.21354 elapsed seconds
Timing for main: time 2019-11-26_21:07:00 on domain   1:    0.21236 elapsed seconds
Timing for main: time 2019-11-26_21:07:15 on domain   1:    0.21350 elapsed seconds
Timing for main: time 2019-11-26_21:07:30 on domain   1:    0.21382 elapsed seconds
Timing for main: time 2019-11-26_21:07:45 on domain   1:    0.21139 elapsed seconds
Timing for main: time 2019-11-26_21:08:00 on domain   1:    0.21149 elapsed seconds
Timing for main: time 2019-11-26_21:08:15 on domain   1:    0.21314 elapsed seconds
Timing for main: time 2019-11-26_21:08:30 on domain   1:    0.21361 elapsed seconds
Timing for main: time 2019-11-26_21:08:45 on domain   1:    0.21364 elapsed seconds
Timing for main: time 2019-11-26_21:09:00 on domain   1:    0.21209 elapsed seconds
Timing for main: time 2019-11-26_21:09:15 on domain   1:    0.21373 elapsed seconds
Timing for main: time 2019-11-26_21:09:30 on domain   1:    0.21328 elapsed seconds
Timing for main: time 2019-11-26_21:09:45 on domain   1:    0.21317 elapsed seconds
Timing for main: time 2019-11-26_21:10:00 on domain   1:    0.21386 elapsed seconds
Timing for main: time 2019-11-26_21:10:15 on domain   1:    0.36853 elapsed seconds
Timing for main: time 2019-11-26_21:10:30 on domain   1:    0.21317 elapsed seconds
Timing for main: time 2019-11-26_21:10:45 on domain   1:    0.21272 elapsed seconds
Timing for main: time 2019-11-26_21:11:00 on domain   1:    0.21376 elapsed seconds
Timing for main: time 2019-11-26_21:11:15 on domain   1:    0.21373 elapsed seconds
Timing for main: time 2019-11-26_21:11:30 on domain   1:    0.21225 elapsed seconds
Timing for main: time 2019-11-26_21:11:45 on domain   1:    0.21293 elapsed seconds
Timing for main: time 2019-11-26_21:12:00 on domain   1:    0.21335 elapsed seconds
Timing for main: time 2019-11-26_21:12:15 on domain   1:    0.21131 elapsed seconds
Timing for main: time 2019-11-26_21:12:30 on domain   1:    0.21276 elapsed seconds
Timing for main: time 2019-11-26_21:12:45 on domain   1:    0.21283 elapsed seconds
Timing for main: time 2019-11-26_21:13:00 on domain   1:    0.21246 elapsed seconds
Timing for main: time 2019-11-26_21:13:15 on domain   1:    0.21309 elapsed seconds
Timing for main: time 2019-11-26_21:13:30 on domain   1:    0.21144 elapsed seconds
Timing for main: time 2019-11-26_21:13:45 on domain   1:    0.21459 elapsed seconds
Timing for main: time 2019-11-26_21:14:00 on domain   1:    0.21397 elapsed seconds
Timing for main: time 2019-11-26_21:14:15 on domain   1:    0.21115 elapsed seconds
Timing for main: time 2019-11-26_21:14:30 on domain   1:    0.21450 elapsed seconds
Timing for main: time 2019-11-26_21:14:45 on domain   1:    0.21469 elapsed seconds
Timing for main: time 2019-11-26_21:15:00 on domain   1:    0.21302 elapsed seconds
Timing for main: time 2019-11-26_21:15:15 on domain   1:    0.21219 elapsed seconds
Timing for main: time 2019-11-26_21:15:30 on domain   1:    0.21304 elapsed seconds
[...]
Timing for main: time 2019-11-26_23:01:30 on domain   1:    0.21145 elapsed seconds
Timing for main: time 2019-11-26_23:01:45 on domain   1:    0.21298 elapsed seconds
Timing for main: time 2019-11-26_23:02:00 on domain   1:    0.21152 elapsed seconds
Timing for main: time 2019-11-26_23:02:15 on domain   1:    0.21218 elapsed seconds
Timing for main: time 2019-11-26_23:02:30 on domain   1:    0.21127 elapsed seconds
Timing for main: time 2019-11-26_23:02:45 on domain   1:    0.21263 elapsed seconds
Timing for main: time 2019-11-26_23:03:00 on domain   1:    0.21238 elapsed seconds
Timing for main: time 2019-11-26_23:03:15 on domain   1:    0.21323 elapsed seconds
Timing for main: time 2019-11-26_23:03:30 on domain   1:    0.21343 elapsed seconds
Timing for main: time 2019-11-26_23:03:45 on domain   1:    0.21145 elapsed seconds
Timing for main: time 2019-11-26_23:04:00 on domain   1:    0.21185 elapsed seconds
Timing for main: time 2019-11-26_23:04:15 on domain   1:    0.21184 elapsed seconds
Timing for main: time 2019-11-26_23:04:30 on domain   1:    0.21238 elapsed seconds
Timing for main: time 2019-11-26_23:04:45 on domain   1:    0.21201 elapsed seconds
Timing for main: time 2019-11-26_23:05:00 on domain   1:    0.21261 elapsed seconds
Timing for main: time 2019-11-26_23:05:15 on domain   1:    0.21069 elapsed seconds
Timing for main: time 2019-11-26_23:05:30 on domain   1:    0.21401 elapsed seconds
Timing for main: time 2019-11-26_23:05:45 on domain   1:    0.21162 elapsed seconds
Timing for main: time 2019-11-26_23:06:00 on domain   1:    0.21143 elapsed seconds
Timing for main: time 2019-11-26_23:06:15 on domain   1:    0.21096 elapsed seconds
Timing for main: time 2019-11-26_23:06:30 on domain   1:    0.21235 elapsed seconds
Timing for main: time 2019-11-26_23:06:45 on domain   1:    0.21150 elapsed seconds
Timing for main: time 2019-11-26_23:07:00 on domain   1:    0.21100 elapsed seconds
Timing for main: time 2019-11-26_23:07:15 on domain   1:    0.21003 elapsed seconds
Timing for main: time 2019-11-26_23:07:30 on domain   1:    0.22271 elapsed seconds
Timing for main: time 2019-11-26_23:07:45 on domain   1:    0.21252 elapsed seconds
Timing for main: time 2019-11-26_23:08:00 on domain   1:    0.21156 elapsed seconds
Timing for main: time 2019-11-26_23:08:15 on domain   1:    0.21214 elapsed seconds
Timing for main: time 2019-11-26_23:08:30 on domain   1:    0.21121 elapsed seconds
Timing for main: time 2019-11-26_23:08:45 on domain   1:    0.21084 elapsed seconds
Timing for main: time 2019-11-26_23:09:00 on domain   1:    0.21034 elapsed seconds
Timing for main: time 2019-11-26_23:09:15 on domain   1:    0.21243 elapsed seconds
Timing for main: time 2019-11-26_23:09:30 on domain   1:    0.21127 elapsed seconds
Timing for main: time 2019-11-26_23:09:45 on domain   1:    0.21176 elapsed seconds
Timing for main: time 2019-11-26_23:10:00 on domain   1:    0.21224 elapsed seconds
Timing for main: time 2019-11-26_23:10:15 on domain   1:    0.41178 elapsed seconds
Timing for main: time 2019-11-26_23:10:30 on domain   1:    0.21212 elapsed seconds
Timing for main: time 2019-11-26_23:10:45 on domain   1:    0.21182 elapsed seconds
Timing for main: time 2019-11-26_23:11:00 on domain   1:    0.21078 elapsed seconds
Timing for main: time 2019-11-26_23:11:15 on domain   1:    0.21307 elapsed seconds
Timing for main: time 2019-11-26_23:11:30 on domain   1:    0.21158 elapsed seconds
Timing for main: time 2019-11-26_23:11:45 on domain   1:    0.21102 elapsed seconds
Timing for main: time 2019-11-26_23:12:00 on domain   1:    0.21205 elapsed seconds
Timing for main: time 2019-11-26_23:12:15 on domain   1:    0.21073 elapsed seconds
Timing for main: time 2019-11-26_23:12:30 on domain   1:    0.21069 elapsed seconds
Timing for main: time 2019-11-26_23:12:45 on domain   1:    0.21228 elapsed seconds
Timing for main: time 2019-11-26_23:13:00 on domain   1:    0.22913 elapsed seconds
Timing for main: time 2019-11-26_23:13:15 on domain   1:    0.21113 elapsed seconds
Timing for main: time 2019-11-26_23:13:30 on domain   1:    0.21160 elapsed seconds
Timing for main: time 2019-11-26_23:13:45 on domain   1:    0.21147 elapsed seconds
Timing for main: time 2019-11-26_23:14:00 on domain   1:    0.21107 elapsed seconds
Timing for main: time 2019-11-26_23:14:15 on domain   1:    0.21158 elapsed seconds
Timing for main: time 2019-11-26_23:14:30 on domain   1:    0.21187 elapsed seconds
Timing for main: time 2019-11-26_23:14:45 on domain   1:    0.21134 elapsed seconds
Timing for main: time 2019-11-26_23:15:00 on domain   1:    0.21131 elapsed seconds
Timing for main: time 2019-11-26_23:15:15 on domain   1:    0.21307 elapsed seconds
Timing for main: time 2019-11-26_23:15:30 on domain   1:    0.21251 elapsed seconds
Timing for main: time 2019-11-26_23:15:45 on domain   1:    0.21082 elapsed seconds
Timing for main: time 2019-11-26_23:16:00 on domain   1:    0.21333 elapsed seconds
Timing for main: time 2019-11-26_23:16:15 on domain   1:    0.21149 elapsed seconds
Timing for main: time 2019-11-26_23:16:30 on domain   1:    0.21097 elapsed seconds
Timing for main: time 2019-11-26_23:16:45 on domain   1:    0.21244 elapsed seconds
Timing for main: time 2019-11-26_23:17:00 on domain   1:    0.21148 elapsed seconds
Timing for main: time 2019-11-26_23:17:15 on domain   1:    0.21226 elapsed seconds
Timing for main: time 2019-11-26_23:17:30 on domain   1:    0.21239 elapsed seconds
Timing for main: time 2019-11-26_23:17:45 on domain   1:    0.21340 elapsed seconds
Timing for main: time 2019-11-26_23:18:00 on domain   1:    0.21008 elapsed seconds
Timing for main: time 2019-11-26_23:18:15 on domain   1:    0.21271 elapsed seconds
Timing for main: time 2019-11-26_23:18:30 on domain   1:    0.21106 elapsed seconds
Timing for main: time 2019-11-26_23:18:45 on domain   1:    0.21259 elapsed seconds
Timing for main: time 2019-11-26_23:19:00 on domain   1:    0.21077 elapsed seconds
Timing for main: time 2019-11-26_23:19:15 on domain   1:    0.21227 elapsed seconds
Timing for main: time 2019-11-26_23:19:30 on domain   1:    0.21090 elapsed seconds
Timing for main: time 2019-11-26_23:19:45 on domain   1:    0.21199 elapsed seconds
Timing for main: time 2019-11-26_23:20:00 on domain   1:    0.21237 elapsed seconds
Timing for main: time 2019-11-26_23:20:15 on domain   1:    0.37106 elapsed seconds
Timing for main: time 2019-11-26_23:20:30 on domain   1:    0.21078 elapsed seconds
Timing for main: time 2019-11-26_23:20:45 on domain   1:    0.21265 elapsed seconds
Timing for main: time 2019-11-26_23:21:00 on domain   1:    0.20977 elapsed seconds
Timing for main: time 2019-11-26_23:21:15 on domain   1:    0.21282 elapsed seconds
Timing for main: time 2019-11-26_23:21:30 on domain   1:    0.21158 elapsed seconds
Timing for main: time 2019-11-26_23:21:45 on domain   1:    0.21096 elapsed seconds
Timing for main: time 2019-11-26_23:22:00 on domain   1:    0.21113 elapsed seconds
Timing for main: time 2019-11-26_23:22:15 on domain   1:    0.21237 elapsed seconds
Timing for main: time 2019-11-26_23:22:30 on domain   1:    0.21154 elapsed seconds
Timing for main: time 2019-11-26_23:22:45 on domain   1:    0.21242 elapsed seconds
Timing for main: time 2019-11-26_23:23:00 on domain   1:    0.21175 elapsed seconds
Timing for main: time 2019-11-26_23:23:15 on domain   1:    0.21380 elapsed seconds
Timing for main: time 2019-11-26_23:23:30 on domain   1:    0.21324 elapsed seconds
Timing for main: time 2019-11-26_23:23:45 on domain   1:    0.21141 elapsed seconds
Timing for main: time 2019-11-26_23:24:00 on domain   1:    0.21168 elapsed seconds
Timing for main: time 2019-11-26_23:24:15 on domain   1:    0.21197 elapsed seconds
Timing for main: time 2019-11-26_23:24:30 on domain   1:    0.21016 elapsed seconds
Timing for main: time 2019-11-26_23:24:45 on domain   1:    0.21256 elapsed seconds
Timing for main: time 2019-11-26_23:25:00 on domain   1:    0.21073 elapsed seconds
Timing for main: time 2019-11-26_23:25:15 on domain   1:    0.21126 elapsed seconds
Timing for main: time 2019-11-26_23:25:30 on domain   1:    0.21102 elapsed seconds
Timing for main: time 2019-11-26_23:25:45 on domain   1:    0.21115 elapsed seconds
Timing for main: time 2019-11-26_23:26:00 on domain   1:    0.21130 elapsed seconds
Timing for main: time 2019-11-26_23:26:15 on domain   1:    0.21130 elapsed seconds
Timing for main: time 2019-11-26_23:26:30 on domain   1:    0.21203 elapsed seconds
Timing for main: time 2019-11-26_23:26:45 on domain   1:    0.21049 elapsed seconds
Timing for main: time 2019-11-26_23:27:00 on domain   1:    0.21173 elapsed seconds
Timing for main: time 2019-11-26_23:27:15 on domain   1:    0.21197 elapsed seconds
Timing for main: time 2019-11-26_23:27:30 on domain   1:    0.21002 elapsed seconds
Timing for main: time 2019-11-26_23:27:45 on domain   1:    0.21212 elapsed seconds
Timing for main: time 2019-11-26_23:28:00 on domain   1:    0.21235 elapsed seconds
Timing for main: time 2019-11-26_23:28:15 on domain   1:    0.21251 elapsed seconds
Timing for main: time 2019-11-26_23:28:30 on domain   1:    0.21171 elapsed seconds
Timing for main: time 2019-11-26_23:28:45 on domain   1:    0.21282 elapsed seconds
Timing for main: time 2019-11-26_23:29:00 on domain   1:    0.21221 elapsed seconds
Timing for main: time 2019-11-26_23:29:15 on domain   1:    0.21190 elapsed seconds
Timing for main: time 2019-11-26_23:29:30 on domain   1:    0.21203 elapsed seconds
Timing for main: time 2019-11-26_23:29:45 on domain   1:    0.21172 elapsed seconds
Timing for main: time 2019-11-26_23:30:00 on domain   1:    0.21238 elapsed seconds
Timing for main: time 2019-11-26_23:30:15 on domain   1:    0.36705 elapsed seconds
Timing for main: time 2019-11-26_23:30:30 on domain   1:    0.21050 elapsed seconds
Timing for main: time 2019-11-26_23:30:45 on domain   1:    0.21169 elapsed seconds
Timing for main: time 2019-11-26_23:31:00 on domain   1:    0.21055 elapsed seconds
Timing for main: time 2019-11-26_23:31:15 on domain   1:    0.21257 elapsed seconds
Timing for main: time 2019-11-26_23:31:30 on domain   1:    0.21205 elapsed seconds
Timing for main: time 2019-11-26_23:31:45 on domain   1:    0.21050 elapsed seconds
Timing for main: time 2019-11-26_23:32:00 on domain   1:    0.21165 elapsed seconds
Timing for main: time 2019-11-26_23:32:15 on domain   1:    0.21154 elapsed seconds
Timing for main: time 2019-11-26_23:32:30 on domain   1:    0.21170 elapsed seconds
Timing for main: time 2019-11-26_23:32:45 on domain   1:    0.21081 elapsed seconds
Timing for main: time 2019-11-26_23:33:00 on domain   1:    0.21116 elapsed seconds
Timing for main: time 2019-11-26_23:33:15 on domain   1:    0.21295 elapsed seconds
Timing for main: time 2019-11-26_23:33:30 on domain   1:    0.21091 elapsed seconds
Timing for main: time 2019-11-26_23:33:45 on domain   1:    0.21254 elapsed seconds
Timing for main: time 2019-11-26_23:34:00 on domain   1:    0.21215 elapsed seconds
Timing for main: time 2019-11-26_23:34:15 on domain   1:    0.21341 elapsed seconds
Timing for main: time 2019-11-26_23:34:30 on domain   1:    0.21351 elapsed seconds
Timing for main: time 2019-11-26_23:34:45 on domain   1:    0.21207 elapsed seconds
Timing for main: time 2019-11-26_23:35:00 on domain   1:    0.21175 elapsed seconds
Timing for main: time 2019-11-26_23:35:15 on domain   1:    0.21387 elapsed seconds
Timing for main: time 2019-11-26_23:35:30 on domain   1:    0.21157 elapsed seconds
Timing for main: time 2019-11-26_23:35:45 on domain   1:    0.21365 elapsed seconds
Timing for main: time 2019-11-26_23:36:00 on domain   1:    0.21233 elapsed seconds
Timing for main: time 2019-11-26_23:36:15 on domain   1:    0.21237 elapsed seconds
Timing for main: time 2019-11-26_23:36:30 on domain   1:    0.21280 elapsed seconds
Timing for main: time 2019-11-26_23:36:45 on domain   1:    0.21190 elapsed seconds
Timing for main: time 2019-11-26_23:37:00 on domain   1:    0.21260 elapsed seconds
Timing for main: time 2019-11-26_23:37:15 on domain   1:    0.21270 elapsed seconds
Timing for main: time 2019-11-26_23:37:30 on domain   1:    0.21215 elapsed seconds
Timing for main: time 2019-11-26_23:37:45 on domain   1:    0.21233 elapsed seconds
Timing for main: time 2019-11-26_23:38:00 on domain   1:    0.21219 elapsed seconds
Timing for main: time 2019-11-26_23:38:15 on domain   1:    0.21265 elapsed seconds
Timing for main: time 2019-11-26_23:38:30 on domain   1:    0.21369 elapsed seconds
Timing for main: time 2019-11-26_23:38:45 on domain   1:    0.21203 elapsed seconds
Timing for main: time 2019-11-26_23:39:00 on domain   1:    0.21248 elapsed seconds
Timing for main: time 2019-11-26_23:39:15 on domain   1:    0.21213 elapsed seconds
Timing for main: time 2019-11-26_23:39:30 on domain   1:    0.21371 elapsed seconds
Timing for main: time 2019-11-26_23:39:45 on domain   1:    0.21208 elapsed seconds
Timing for main: time 2019-11-26_23:40:00 on domain   1:    0.21166 elapsed seconds
Timing for main: time 2019-11-26_23:40:15 on domain   1:    0.36514 elapsed seconds
Timing for main: time 2019-11-26_23:40:30 on domain   1:    0.21275 elapsed seconds
Timing for main: time 2019-11-26_23:40:45 on domain   1:    0.21422 elapsed seconds
Timing for main: time 2019-11-26_23:41:00 on domain   1:    0.21180 elapsed seconds
Timing for main: time 2019-11-26_23:41:15 on domain   1:    0.21403 elapsed seconds
Timing for main: time 2019-11-26_23:41:30 on domain   1:    0.21233 elapsed seconds
Timing for main: time 2019-11-26_23:41:45 on domain   1:    0.21303 elapsed seconds
Timing for main: time 2019-11-26_23:42:00 on domain   1:    0.21259 elapsed seconds
Timing for main: time 2019-11-26_23:42:15 on domain   1:    0.21267 elapsed seconds
Timing for main: time 2019-11-26_23:42:30 on domain   1:    0.21278 elapsed seconds
Timing for main: time 2019-11-26_23:42:45 on domain   1:    0.21216 elapsed seconds
Timing for main: time 2019-11-26_23:43:00 on domain   1:    0.21444 elapsed seconds
Timing for main: time 2019-11-26_23:43:15 on domain   1:    0.21342 elapsed seconds
Timing for main: time 2019-11-26_23:43:30 on domain   1:    0.21177 elapsed seconds
Timing for main: time 2019-11-26_23:43:45 on domain   1:    0.21290 elapsed seconds
Timing for main: time 2019-11-26_23:44:00 on domain   1:    0.21309 elapsed seconds
Timing for main: time 2019-11-26_23:44:15 on domain   1:    0.21300 elapsed seconds
Timing for main: time 2019-11-26_23:44:30 on domain   1:    0.21262 elapsed seconds
Timing for main: time 2019-11-26_23:44:45 on domain   1:    0.21095 elapsed seconds
Timing for main: time 2019-11-26_23:45:00 on domain   1:    0.20852 elapsed seconds
Timing for main: time 2019-11-26_23:45:15 on domain   1:    0.21388 elapsed seconds
Timing for main: time 2019-11-26_23:45:30 on domain   1:    0.21378 elapsed seconds
Timing for main: time 2019-11-26_23:45:45 on domain   1:    0.21359 elapsed seconds
Timing for main: time 2019-11-26_23:46:00 on domain   1:    0.21506 elapsed seconds
Timing for main: time 2019-11-26_23:46:15 on domain   1:    0.21477 elapsed seconds
Timing for main: time 2019-11-26_23:46:30 on domain   1:    0.21335 elapsed seconds
Timing for main: time 2019-11-26_23:46:45 on domain   1:    0.21175 elapsed seconds
Timing for main: time 2019-11-26_23:47:00 on domain   1:    0.21346 elapsed seconds
Timing for main: time 2019-11-26_23:47:15 on domain   1:    0.21254 elapsed seconds
Timing for main: time 2019-11-26_23:47:30 on domain   1:    0.21147 elapsed seconds
Timing for main: time 2019-11-26_23:47:45 on domain   1:    0.21242 elapsed seconds
Timing for main: time 2019-11-26_23:48:00 on domain   1:    0.21434 elapsed seconds
Timing for main: time 2019-11-26_23:48:15 on domain   1:    0.21019 elapsed seconds
Timing for main: time 2019-11-26_23:48:30 on domain   1:    0.21276 elapsed seconds
Timing for main: time 2019-11-26_23:48:45 on domain   1:    0.21267 elapsed seconds
Timing for main: time 2019-11-26_23:49:00 on domain   1:    0.21343 elapsed seconds
Timing for main: time 2019-11-26_23:49:15 on domain   1:    0.21252 elapsed seconds
Timing for main: time 2019-11-26_23:49:30 on domain   1:    0.21162 elapsed seconds
Timing for main: time 2019-11-26_23:49:45 on domain   1:    0.21302 elapsed seconds
Timing for main: time 2019-11-26_23:50:00 on domain   1:    0.21249 elapsed seconds
Timing for main: time 2019-11-26_23:50:15 on domain   1:    0.36906 elapsed seconds
Timing for main: time 2019-11-26_23:50:30 on domain   1:    0.21102 elapsed seconds
Timing for main: time 2019-11-26_23:50:45 on domain   1:    0.21402 elapsed seconds
Timing for main: time 2019-11-26_23:51:00 on domain   1:    0.21439 elapsed seconds
Timing for main: time 2019-11-26_23:51:15 on domain   1:    0.21249 elapsed seconds
Timing for main: time 2019-11-26_23:51:30 on domain   1:    0.21366 elapsed seconds
Timing for main: time 2019-11-26_23:51:45 on domain   1:    0.21179 elapsed seconds
Timing for main: time 2019-11-26_23:52:00 on domain   1:    0.21354 elapsed seconds
Timing for main: time 2019-11-26_23:52:15 on domain   1:    0.21186 elapsed seconds
Timing for main: time 2019-11-26_23:52:30 on domain   1:    0.21281 elapsed seconds
Timing for main: time 2019-11-26_23:52:45 on domain   1:    0.21209 elapsed seconds
Timing for main: time 2019-11-26_23:53:00 on domain   1:    0.21146 elapsed seconds
Timing for main: time 2019-11-26_23:53:15 on domain   1:    0.21186 elapsed seconds
Timing for main: time 2019-11-26_23:53:30 on domain   1:    0.21211 elapsed seconds
Timing for main: time 2019-11-26_23:53:45 on domain   1:    0.21250 elapsed seconds
Timing for main: time 2019-11-26_23:54:00 on domain   1:    0.21287 elapsed seconds
Timing for main: time 2019-11-26_23:54:15 on domain   1:    0.21284 elapsed seconds
Timing for main: time 2019-11-26_23:54:30 on domain   1:    0.21148 elapsed seconds
Timing for main: time 2019-11-26_23:54:45 on domain   1:    0.21511 elapsed seconds
Timing for main: time 2019-11-26_23:55:00 on domain   1:    0.21126 elapsed seconds
Timing for main: time 2019-11-26_23:55:15 on domain   1:    0.21286 elapsed seconds
Timing for main: time 2019-11-26_23:55:30 on domain   1:    0.21364 elapsed seconds
Timing for main: time 2019-11-26_23:55:45 on domain   1:    0.21304 elapsed seconds
Timing for main: time 2019-11-26_23:56:00 on domain   1:    0.21196 elapsed seconds
Timing for main: time 2019-11-26_23:56:15 on domain   1:    0.21256 elapsed seconds
Timing for main: time 2019-11-26_23:56:30 on domain   1:    0.21114 elapsed seconds
Timing for main: time 2019-11-26_23:56:45 on domain   1:    0.21189 elapsed seconds
Timing for main: time 2019-11-26_23:57:00 on domain   1:    0.21170 elapsed seconds
Timing for main: time 2019-11-26_23:57:15 on domain   1:    0.21049 elapsed seconds
Timing for main: time 2019-11-26_23:57:30 on domain   1:    0.21118 elapsed seconds
Timing for main: time 2019-11-26_23:57:45 on domain   1:    0.21170 elapsed seconds
Timing for main: time 2019-11-26_23:58:00 on domain   1:    0.21216 elapsed seconds
Timing for main: time 2019-11-26_23:58:15 on domain   1:    0.21241 elapsed seconds
Timing for main: time 2019-11-26_23:58:30 on domain   1:    0.21198 elapsed seconds
Timing for main: time 2019-11-26_23:58:45 on domain   1:    0.21228 elapsed seconds
Timing for main: time 2019-11-26_23:59:00 on domain   1:    0.21166 elapsed seconds
Timing for main: time 2019-11-26_23:59:15 on domain   1:    0.21242 elapsed seconds
Timing for main: time 2019-11-26_23:59:30 on domain   1:    0.21183 elapsed seconds
Timing for main: time 2019-11-26_23:59:45 on domain   1:    0.21266 elapsed seconds
Timing for main: time 2019-11-27_00:00:00 on domain   1:    0.21188 elapsed seconds
Timing for Writing wrfout_d01_2019-11-27_00:00:00 for domain        1:   18.60398 elapsed seconds
d01 2019-11-27_00:00:00 wrf: SUCCESS COMPLETE WRF
Checking-in/releasing AceCAST Licenses
Successfully checked-in/released AceCAST Licenses.
