taskid: 0 hostname: x1006c0s2b1n1
Quilting with   1 groups of   0 I/O tasks.
 Ntasks in X           64 , ntasks in Y           96
*************************************
Configuring physics suite 'conus'

         mp_physics:      8
         cu_physics:      0*
      ra_lw_physics:      4
      ra_sw_physics:      4
     bl_pbl_physics:      2
  sf_sfclay_physics:      2
 sf_surface_physics:      2

(* = option overrides suite setting)
*************************************
Domain # 1: dx =  2500.000 m
WRF V4.6.1 MODEL
No git found or not a git repository, git commit version not available.
 *************************************
 Parent domain
 ids,ide,jds,jde            1        1501           1        1201
 ims,ime,jms,jme           -4          31          -4          20
 ips,ipe,jps,jpe            1          24           1          13
 *************************************
DYNAMICS OPTION: Eulerian Mass Coordinate
 alloc_space_field: domain            1 ,              36461632  bytes allocated
med_initialdata_input: calling input_input
 Input data is acceptable to use: wrfinput_d01
 CURRENT DATE          = 2019-11-26_18:00:00
 SIMULATION START DATE = 2019-11-26_18:00:00
Timing for processing wrfinput file (stream 0) for domain        1:   38.49742 elapsed seconds
Max map factor in domain 1 =  1.02. Scale the dt in the model accordingly.
 D01: Time step                              =    15.0000000      (s)
 D01: Grid Distance                          =    2.50000000      (km)
 D01: Grid Distance Ratio dt/dx              =    6.00000000      (s/km)
 D01: Ratio Including Maximum Map Factor     =    6.13815594      (s/km)
 D01: NML defined reasonable_time_step_ratio =    6.00000000
 Climate GHG input from file from year         1765  to         2499
 CO2   range =    277.91300000000001        579.26400000000001       ppm
 N2O   range =    274.37200000000001        359.79800000000000       ppb
 CH4   range =    738.98599999999999        997.31100000000004       ppb
 CFC11 range =    0.0000000000000000        1.4000000000000000E-002  ppt
 CFC12 range =    0.0000000000000000        2.8809999999999998       ppt
 Normal ending of CAMtr_volume_mixing_ratio file
 GHG annual values from CAM trace gas file
 Year =         2019 , Julian day =          330
 CO2   =    4.1280616288937283E-004  volume mixing ratio
 N2O   =    3.3164731848847696E-007  volume mixing ratio
 CH4   =    1.9046224215321381E-006  volume mixing ratio
 CFC11 =    2.1972312207550427E-010  volume mixing ratio
 CFC12 =    4.9756474391800364E-010  volume mixing ratio
INPUT LandUse = "MODIFIED_IGBP_MODIS_NOAH"
 LANDUSE TYPE = "MODIFIED_IGBP_MODIS_NOAH" FOUND          61  CATEGORIES           2  SEASONS WATER CATEGORY =           17  SNOW CATEGORY =           15
INITIALIZE THREE Noah LSM RELATED TABLES
Skipping over LUTYPE = USGS
 LANDUSE TYPE = MODIFIED_IGBP_MODIS_NOAH FOUND          20  CATEGORIES
 INPUT SOIL TEXTURE CLASSIFICATION = STAS
 SOIL TEXTURE CLASSIFICATION = STAS FOUND          19  CATEGORIES
ThompMP: computing qr_acr_qg table: qr_acr_qg_V4.dat
Timing for table computation qr_acr_qg_V4.dat:    1.06122 elapsed seconds
Writing qr_acr_qg_V4.dat     in Thompson MP init
ThompMP: computing qr_acr_qs
Writing qr_acr_qsV2.dat in Thompson MP init
ThompMP: computing freezeH2O
Writing freezeH2O.dat in Thompson MP init
Timing for Writing wrfout_d01_2019-11-26_18:00:00 for domain        1:   98.76060 elapsed seconds
 Input data is acceptable to use: wrfbdy_d01
Timing for processing lateral boundary for domain        1:    9.35327 elapsed seconds
WRF NUMBER OF TILES FROM OMP_GET_MAX_THREADS =   1
 Tile Strategy is not specified. Assuming 1D-Y
WRF TILE   1 IS      1 IE     24 JS      1 JE     13
WRF NUMBER OF TILES =   1
 ----------------------------------------
 W-DAMPING  BEGINS AT W-COURANT NUMBER =    1.00000000
 ----------------------------------------
Timing for main: time 2019-11-26_18:00:15 on domain   1:  108.69858 elapsed seconds
Timing for main: time 2019-11-26_18:00:30 on domain   1:    0.05655 elapsed seconds
Timing for main: time 2019-11-26_18:00:45 on domain   1:    0.05905 elapsed seconds
Timing for main: time 2019-11-26_18:01:00 on domain   1:    0.05662 elapsed seconds
Timing for main: time 2019-11-26_18:01:15 on domain   1:    0.05795 elapsed seconds
Timing for main: time 2019-11-26_18:01:30 on domain   1:    0.05644 elapsed seconds
Timing for main: time 2019-11-26_18:01:45 on domain   1:    0.05830 elapsed seconds
Timing for main: time 2019-11-26_18:02:00 on domain   1:    0.05602 elapsed seconds
Timing for main: time 2019-11-26_18:02:15 on domain   1:    0.05601 elapsed seconds
Timing for main: time 2019-11-26_18:02:30 on domain   1:    0.05949 elapsed seconds
Timing for main: time 2019-11-26_18:02:45 on domain   1:    0.05616 elapsed seconds
Timing for main: time 2019-11-26_18:03:00 on domain   1:    0.05641 elapsed seconds
Timing for main: time 2019-11-26_18:03:15 on domain   1:    0.05632 elapsed seconds
Timing for main: time 2019-11-26_18:03:30 on domain   1:    0.05610 elapsed seconds
Timing for main: time 2019-11-26_18:03:45 on domain   1:    0.05691 elapsed seconds
Timing for main: time 2019-11-26_18:04:00 on domain   1:    0.05597 elapsed seconds
Timing for main: time 2019-11-26_18:04:15 on domain   1:    0.05534 elapsed seconds
Timing for main: time 2019-11-26_18:04:30 on domain   1:    0.06142 elapsed seconds
Timing for main: time 2019-11-26_18:04:45 on domain   1:    0.05642 elapsed seconds
Timing for main: time 2019-11-26_18:05:00 on domain   1:    0.05686 elapsed seconds
Timing for main: time 2019-11-26_18:05:15 on domain   1:    0.05722 elapsed seconds
Timing for main: time 2019-11-26_18:05:30 on domain   1:    0.05612 elapsed seconds
Timing for main: time 2019-11-26_18:05:45 on domain   1:    0.05769 elapsed seconds
Timing for main: time 2019-11-26_18:06:00 on domain   1:    0.05624 elapsed seconds
Timing for main: time 2019-11-26_18:06:15 on domain   1:    0.05764 elapsed seconds
Timing for main: time 2019-11-26_18:06:30 on domain   1:    0.05669 elapsed seconds
Timing for main: time 2019-11-26_18:06:45 on domain   1:    0.06121 elapsed seconds
Timing for main: time 2019-11-26_18:07:00 on domain   1:    0.05751 elapsed seconds
Timing for main: time 2019-11-26_18:07:15 on domain   1:    0.05698 elapsed seconds
Timing for main: time 2019-11-26_18:07:30 on domain   1:    0.06020 elapsed seconds
Timing for main: time 2019-11-26_18:07:45 on domain   1:    0.05480 elapsed seconds
Timing for main: time 2019-11-26_18:08:00 on domain   1:    0.05954 elapsed seconds
Timing for main: time 2019-11-26_18:08:15 on domain   1:    0.05826 elapsed seconds
Timing for main: time 2019-11-26_18:08:30 on domain   1:    0.06078 elapsed seconds
Timing for main: time 2019-11-26_18:08:45 on domain   1:    0.06887 elapsed seconds
Timing for main: time 2019-11-26_18:09:00 on domain   1:    0.06600 elapsed seconds
Timing for main: time 2019-11-26_18:09:15 on domain   1:    0.06368 elapsed seconds
Timing for main: time 2019-11-26_18:09:30 on domain   1:    0.06657 elapsed seconds
Timing for main: time 2019-11-26_18:09:45 on domain   1:    0.07093 elapsed seconds
Timing for main: time 2019-11-26_18:10:00 on domain   1:    0.06488 elapsed seconds
Timing for main: time 2019-11-26_18:10:15 on domain   1:    0.49467 elapsed seconds
Timing for main: time 2019-11-26_18:10:30 on domain   1:    0.06685 elapsed seconds
Timing for main: time 2019-11-26_18:10:45 on domain   1:    0.06760 elapsed seconds
Timing for main: time 2019-11-26_18:11:00 on domain   1:    0.06786 elapsed seconds
Timing for main: time 2019-11-26_18:11:15 on domain   1:    0.06695 elapsed seconds
Timing for main: time 2019-11-26_18:11:30 on domain   1:    0.07092 elapsed seconds
Timing for main: time 2019-11-26_18:11:45 on domain   1:    0.06956 elapsed seconds
Timing for main: time 2019-11-26_18:12:00 on domain   1:    0.06442 elapsed seconds
Timing for main: time 2019-11-26_18:12:15 on domain   1:    0.07094 elapsed seconds
Timing for main: time 2019-11-26_18:12:30 on domain   1:    0.08202 elapsed seconds
Timing for main: time 2019-11-26_18:12:45 on domain   1:    0.06885 elapsed seconds
Timing for main: time 2019-11-26_18:13:00 on domain   1:    0.06747 elapsed seconds
Timing for main: time 2019-11-26_18:13:15 on domain   1:    0.06299 elapsed seconds
Timing for main: time 2019-11-26_18:13:30 on domain   1:    0.06256 elapsed seconds
Timing for main: time 2019-11-26_18:13:45 on domain   1:    0.06242 elapsed seconds
Timing for main: time 2019-11-26_18:14:00 on domain   1:    0.06310 elapsed seconds
Timing for main: time 2019-11-26_18:14:15 on domain   1:    0.06254 elapsed seconds
Timing for main: time 2019-11-26_18:14:30 on domain   1:    0.06331 elapsed seconds
Timing for main: time 2019-11-26_18:14:45 on domain   1:    0.06580 elapsed seconds
Timing for main: time 2019-11-26_18:15:00 on domain   1:    0.06563 elapsed seconds
Timing for main: time 2019-11-26_18:15:15 on domain   1:    0.06968 elapsed seconds
Timing for main: time 2019-11-26_18:15:30 on domain   1:    0.06051 elapsed seconds
Timing for main: time 2019-11-26_18:15:45 on domain   1:    0.06899 elapsed seconds
Timing for main: time 2019-11-26_18:16:00 on domain   1:    0.06512 elapsed seconds
Timing for main: time 2019-11-26_18:16:15 on domain   1:    0.06504 elapsed seconds
Timing for main: time 2019-11-26_18:16:30 on domain   1:    0.06402 elapsed seconds
Timing for main: time 2019-11-26_18:16:45 on domain   1:    0.06213 elapsed seconds
Timing for main: time 2019-11-26_18:17:00 on domain   1:    0.07179 elapsed seconds
Timing for main: time 2019-11-26_18:17:15 on domain   1:    0.06309 elapsed seconds
Timing for main: time 2019-11-26_18:17:30 on domain   1:    0.06851 elapsed seconds
Timing for main: time 2019-11-26_18:17:45 on domain   1:    0.06205 elapsed seconds
Timing for main: time 2019-11-26_18:18:00 on domain   1:    0.06513 elapsed seconds
Timing for main: time 2019-11-26_18:18:15 on domain   1:    0.06409 elapsed seconds
Timing for main: time 2019-11-26_18:18:30 on domain   1:    0.06477 elapsed seconds
Timing for main: time 2019-11-26_18:18:45 on domain   1:    0.07017 elapsed seconds
Timing for main: time 2019-11-26_18:19:00 on domain   1:    0.06752 elapsed seconds
Timing for main: time 2019-11-26_18:19:15 on domain   1:    0.06850 elapsed seconds
Timing for main: time 2019-11-26_18:19:30 on domain   1:    0.06650 elapsed seconds
Timing for main: time 2019-11-26_18:19:45 on domain   1:    0.06552 elapsed seconds
Timing for main: time 2019-11-26_18:20:00 on domain   1:    0.06673 elapsed seconds
Timing for main: time 2019-11-26_18:20:15 on domain   1:    0.52274 elapsed seconds
Timing for main: time 2019-11-26_18:20:30 on domain   1:    0.06733 elapsed seconds
Timing for main: time 2019-11-26_18:20:45 on domain   1:    0.06636 elapsed seconds
Timing for main: time 2019-11-26_18:21:00 on domain   1:    0.06370 elapsed seconds
Timing for main: time 2019-11-26_18:21:15 on domain   1:    0.07399 elapsed seconds
Timing for main: time 2019-11-26_18:21:30 on domain   1:    0.06707 elapsed seconds
Timing for main: time 2019-11-26_18:21:45 on domain   1:    0.10927 elapsed seconds
Timing for main: time 2019-11-26_18:22:00 on domain   1:    0.07269 elapsed seconds
Timing for main: time 2019-11-26_18:22:15 on domain   1:    0.07119 elapsed seconds
Timing for main: time 2019-11-26_18:22:30 on domain   1:    0.06736 elapsed seconds
Timing for main: time 2019-11-26_18:22:45 on domain   1:    0.06767 elapsed seconds
Timing for main: time 2019-11-26_18:23:00 on domain   1:    0.06407 elapsed seconds
Timing for main: time 2019-11-26_18:23:15 on domain   1:    0.06580 elapsed seconds
Timing for main: time 2019-11-26_18:23:30 on domain   1:    0.06554 elapsed seconds
Timing for main: time 2019-11-26_18:23:45 on domain   1:    0.06863 elapsed seconds
Timing for main: time 2019-11-26_18:24:00 on domain   1:    0.06862 elapsed seconds
Timing for main: time 2019-11-26_18:24:15 on domain   1:    0.06917 elapsed seconds
Timing for main: time 2019-11-26_18:24:30 on domain   1:    0.06476 elapsed seconds
Timing for main: time 2019-11-26_18:24:45 on domain   1:    0.06695 elapsed seconds
Timing for main: time 2019-11-26_18:25:00 on domain   1:    0.06931 elapsed seconds
Timing for main: time 2019-11-26_18:25:15 on domain   1:    0.06728 elapsed seconds
Timing for main: time 2019-11-26_18:25:30 on domain   1:    0.06572 elapsed seconds
Timing for main: time 2019-11-26_18:25:45 on domain   1:    0.06818 elapsed seconds
Timing for main: time 2019-11-26_18:26:00 on domain   1:    0.06391 elapsed seconds
Timing for main: time 2019-11-26_18:26:15 on domain   1:    0.06476 elapsed seconds
Timing for main: time 2019-11-26_18:26:30 on domain   1:    0.06362 elapsed seconds
Timing for main: time 2019-11-26_18:26:45 on domain   1:    0.06507 elapsed seconds
Timing for main: time 2019-11-26_18:27:00 on domain   1:    0.06243 elapsed seconds
Timing for main: time 2019-11-26_18:27:15 on domain   1:    0.06831 elapsed seconds
Timing for main: time 2019-11-26_18:27:30 on domain   1:    0.06660 elapsed seconds
Timing for main: time 2019-11-26_18:27:45 on domain   1:    0.06720 elapsed seconds
Timing for main: time 2019-11-26_18:28:00 on domain   1:    0.06963 elapsed seconds
Timing for main: time 2019-11-26_18:28:15 on domain   1:    0.06250 elapsed seconds
Timing for main: time 2019-11-26_18:28:30 on domain   1:    0.06719 elapsed seconds
Timing for main: time 2019-11-26_18:28:45 on domain   1:    0.06137 elapsed seconds
Timing for main: time 2019-11-26_18:29:00 on domain   1:    0.06405 elapsed seconds
Timing for main: time 2019-11-26_18:29:15 on domain   1:    0.06761 elapsed seconds
Timing for main: time 2019-11-26_18:29:30 on domain   1:    0.06003 elapsed seconds
Timing for main: time 2019-11-26_18:29:45 on domain   1:    0.06610 elapsed seconds
Timing for main: time 2019-11-26_18:30:00 on domain   1:    0.06176 elapsed seconds
Timing for main: time 2019-11-26_18:30:15 on domain   1:    0.52995 elapsed seconds
Timing for main: time 2019-11-26_18:30:30 on domain   1:    0.06165 elapsed seconds
Timing for main: time 2019-11-26_18:30:45 on domain   1:    0.06327 elapsed seconds
Timing for main: time 2019-11-26_18:31:00 on domain   1:    0.06245 elapsed seconds
Timing for main: time 2019-11-26_18:31:15 on domain   1:    0.06548 elapsed seconds
Timing for main: time 2019-11-26_18:31:30 on domain   1:    0.06531 elapsed seconds
Timing for main: time 2019-11-26_18:31:45 on domain   1:    0.06755 elapsed seconds
Timing for main: time 2019-11-26_18:32:00 on domain   1:    0.06385 elapsed seconds
Timing for main: time 2019-11-26_18:32:15 on domain   1:    0.06173 elapsed seconds
Timing for main: time 2019-11-26_18:32:30 on domain   1:    0.06448 elapsed seconds
Timing for main: time 2019-11-26_18:32:45 on domain   1:    0.06217 elapsed seconds
Timing for main: time 2019-11-26_18:33:00 on domain   1:    0.06623 elapsed seconds
Timing for main: time 2019-11-26_18:33:15 on domain   1:    0.06104 elapsed seconds
Timing for main: time 2019-11-26_18:33:30 on domain   1:    0.06236 elapsed seconds
Timing for main: time 2019-11-26_18:33:45 on domain   1:    0.06210 elapsed seconds
Timing for main: time 2019-11-26_18:34:00 on domain   1:    0.06180 elapsed seconds
Timing for main: time 2019-11-26_18:34:15 on domain   1:    0.06230 elapsed seconds
Timing for main: time 2019-11-26_18:34:30 on domain   1:    0.06212 elapsed seconds
Timing for main: time 2019-11-26_18:34:45 on domain   1:    0.06258 elapsed seconds
Timing for main: time 2019-11-26_18:35:00 on domain   1:    0.06442 elapsed seconds
Timing for main: time 2019-11-26_18:35:15 on domain   1:    0.06149 elapsed seconds
Timing for main: time 2019-11-26_18:35:30 on domain   1:    0.06118 elapsed seconds
Timing for main: time 2019-11-26_18:35:45 on domain   1:    0.06431 elapsed seconds
Timing for main: time 2019-11-26_18:36:00 on domain   1:    0.06188 elapsed seconds
Timing for main: time 2019-11-26_18:36:15 on domain   1:    0.06227 elapsed seconds
Timing for main: time 2019-11-26_18:36:30 on domain   1:    0.06288 elapsed seconds
Timing for main: time 2019-11-26_18:36:45 on domain   1:    0.06331 elapsed seconds
Timing for main: time 2019-11-26_18:37:00 on domain   1:    0.06633 elapsed seconds
Timing for main: time 2019-11-26_18:37:15 on domain   1:    0.07254 elapsed seconds
Timing for main: time 2019-11-26_18:37:30 on domain   1:    0.06121 elapsed seconds
Timing for main: time 2019-11-26_18:37:45 on domain   1:    0.06453 elapsed seconds
Timing for main: time 2019-11-26_18:38:00 on domain   1:    0.06417 elapsed seconds
Timing for main: time 2019-11-26_18:38:15 on domain   1:    0.06345 elapsed seconds
Timing for main: time 2019-11-26_18:38:30 on domain   1:    0.06346 elapsed seconds
Timing for main: time 2019-11-26_18:38:45 on domain   1:    0.06258 elapsed seconds
Timing for main: time 2019-11-26_18:39:00 on domain   1:    0.06258 elapsed seconds
Timing for main: time 2019-11-26_18:39:15 on domain   1:    0.06239 elapsed seconds
Timing for main: time 2019-11-26_18:39:30 on domain   1:    0.06217 elapsed seconds
Timing for main: time 2019-11-26_18:39:45 on domain   1:    0.06643 elapsed seconds
Timing for main: time 2019-11-26_18:40:00 on domain   1:    0.06582 elapsed seconds
Timing for main: time 2019-11-26_18:40:15 on domain   1:    0.53226 elapsed seconds
Timing for main: time 2019-11-26_18:40:30 on domain   1:    0.06081 elapsed seconds
Timing for main: time 2019-11-26_18:40:45 on domain   1:    0.06162 elapsed seconds
Timing for main: time 2019-11-26_18:41:00 on domain   1:    0.06530 elapsed seconds
Timing for main: time 2019-11-26_18:41:15 on domain   1:    0.06429 elapsed seconds
Timing for main: time 2019-11-26_18:41:30 on domain   1:    0.06753 elapsed seconds
Timing for main: time 2019-11-26_18:41:45 on domain   1:    0.06460 elapsed seconds
Timing for main: time 2019-11-26_18:42:00 on domain   1:    0.06266 elapsed seconds
Timing for main: time 2019-11-26_18:42:15 on domain   1:    0.06384 elapsed seconds
Timing for main: time 2019-11-26_18:42:30 on domain   1:    0.06412 elapsed seconds
Timing for main: time 2019-11-26_18:42:45 on domain   1:    0.06360 elapsed seconds
Timing for main: time 2019-11-26_18:43:00 on domain   1:    0.06217 elapsed seconds
Timing for main: time 2019-11-26_18:43:15 on domain   1:    0.64298 elapsed seconds
Timing for main: time 2019-11-26_18:43:30 on domain   1:    0.07280 elapsed seconds
Timing for main: time 2019-11-26_18:43:45 on domain   1:    0.06239 elapsed seconds
Timing for main: time 2019-11-26_18:44:00 on domain   1:    0.06151 elapsed seconds
Timing for main: time 2019-11-26_18:44:15 on domain   1:    0.06161 elapsed seconds
Timing for main: time 2019-11-26_18:44:30 on domain   1:    0.06628 elapsed seconds
Timing for main: time 2019-11-26_18:44:45 on domain   1:    0.06373 elapsed seconds
Timing for main: time 2019-11-26_18:45:00 on domain   1:    0.06392 elapsed seconds
Timing for main: time 2019-11-26_18:45:15 on domain   1:    0.06287 elapsed seconds
Timing for main: time 2019-11-26_18:45:30 on domain   1:    0.06440 elapsed seconds
Timing for main: time 2019-11-26_18:45:45 on domain   1:    0.06259 elapsed seconds
Timing for main: time 2019-11-26_18:46:00 on domain   1:    0.06285 elapsed seconds
Timing for main: time 2019-11-26_18:46:15 on domain   1:    0.06263 elapsed seconds
Timing for main: time 2019-11-26_18:46:30 on domain   1:    0.06161 elapsed seconds
Timing for main: time 2019-11-26_18:46:45 on domain   1:    0.06524 elapsed seconds
Timing for main: time 2019-11-26_18:47:00 on domain   1:    0.06454 elapsed seconds
Timing for main: time 2019-11-26_18:47:15 on domain   1:    0.06229 elapsed seconds
Timing for main: time 2019-11-26_18:47:30 on domain   1:    0.06202 elapsed seconds
Timing for main: time 2019-11-26_18:47:45 on domain   1:    0.06340 elapsed seconds
Timing for main: time 2019-11-26_18:48:00 on domain   1:    0.06216 elapsed seconds
Timing for main: time 2019-11-26_18:48:15 on domain   1:    0.06258 elapsed seconds
Timing for main: time 2019-11-26_18:48:30 on domain   1:    0.06311 elapsed seconds
Timing for main: time 2019-11-26_18:48:45 on domain   1:    0.06268 elapsed seconds
Timing for main: time 2019-11-26_18:49:00 on domain   1:    0.06212 elapsed seconds
Timing for main: time 2019-11-26_18:49:15 on domain   1:    0.06238 elapsed seconds
Timing for main: time 2019-11-26_18:49:30 on domain   1:    0.06290 elapsed seconds
Timing for main: time 2019-11-26_18:49:45 on domain   1:    0.06188 elapsed seconds
Timing for main: time 2019-11-26_18:50:00 on domain   1:    0.06270 elapsed seconds
Timing for main: time 2019-11-26_18:50:15 on domain   1:    0.53654 elapsed seconds
Timing for main: time 2019-11-26_18:50:30 on domain   1:    0.06090 elapsed seconds
Timing for main: time 2019-11-26_18:50:45 on domain   1:    0.06420 elapsed seconds
Timing for main: time 2019-11-26_18:51:00 on domain   1:    0.06238 elapsed seconds
Timing for main: time 2019-11-26_18:51:15 on domain   1:    0.06390 elapsed seconds
Timing for main: time 2019-11-26_18:51:30 on domain   1:    0.06691 elapsed seconds
Timing for main: time 2019-11-26_18:51:45 on domain   1:    0.06437 elapsed seconds
Timing for main: time 2019-11-26_18:52:00 on domain   1:    0.06331 elapsed seconds
Timing for main: time 2019-11-26_18:52:15 on domain   1:    0.06178 elapsed seconds
Timing for main: time 2019-11-26_18:52:30 on domain   1:    0.06355 elapsed seconds
Timing for main: time 2019-11-26_18:52:45 on domain   1:    0.06285 elapsed seconds
Timing for main: time 2019-11-26_18:53:00 on domain   1:    0.06410 elapsed seconds
Timing for main: time 2019-11-26_18:53:15 on domain   1:    0.06341 elapsed seconds
Timing for main: time 2019-11-26_18:53:30 on domain   1:    0.06229 elapsed seconds
Timing for main: time 2019-11-26_18:53:45 on domain   1:    0.06254 elapsed seconds
Timing for main: time 2019-11-26_18:54:00 on domain   1:    0.06416 elapsed seconds
Timing for main: time 2019-11-26_18:54:15 on domain   1:    0.06193 elapsed seconds
Timing for main: time 2019-11-26_18:54:30 on domain   1:    0.06336 elapsed seconds
Timing for main: time 2019-11-26_18:54:45 on domain   1:    0.06296 elapsed seconds
Timing for main: time 2019-11-26_18:55:00 on domain   1:    0.06252 elapsed seconds
Timing for main: time 2019-11-26_18:55:15 on domain   1:    0.06289 elapsed seconds
Timing for main: time 2019-11-26_18:55:30 on domain   1:    0.06375 elapsed seconds
Timing for main: time 2019-11-26_18:55:45 on domain   1:    0.06270 elapsed seconds
Timing for main: time 2019-11-26_18:56:00 on domain   1:    0.06263 elapsed seconds
Timing for main: time 2019-11-26_18:56:15 on domain   1:    0.06282 elapsed seconds
Timing for main: time 2019-11-26_18:56:30 on domain   1:    0.06268 elapsed seconds
Timing for main: time 2019-11-26_18:56:45 on domain   1:    0.06356 elapsed seconds
Timing for main: time 2019-11-26_18:57:00 on domain   1:    0.06372 elapsed seconds
Timing for main: time 2019-11-26_18:57:15 on domain   1:    0.06318 elapsed seconds
Timing for main: time 2019-11-26_18:57:30 on domain   1:    0.06288 elapsed seconds
Timing for main: time 2019-11-26_18:57:45 on domain   1:    0.06370 elapsed seconds
Timing for main: time 2019-11-26_18:58:00 on domain   1:    0.06484 elapsed seconds
Timing for main: time 2019-11-26_18:58:15 on domain   1:    0.06324 elapsed seconds
Timing for main: time 2019-11-26_18:58:30 on domain   1:    0.06336 elapsed seconds
Timing for main: time 2019-11-26_18:58:45 on domain   1:    0.06350 elapsed seconds
Timing for main: time 2019-11-26_18:59:00 on domain   1:    0.06607 elapsed seconds
Timing for main: time 2019-11-26_18:59:15 on domain   1:    0.06320 elapsed seconds
Timing for main: time 2019-11-26_18:59:30 on domain   1:    0.06273 elapsed seconds
Timing for main: time 2019-11-26_18:59:45 on domain   1:    0.06342 elapsed seconds
Timing for main: time 2019-11-26_19:00:00 on domain   1:    0.06600 elapsed seconds
Timing for Writing wrfout_d01_2019-11-26_19:00:00 for domain        1:  109.04075 elapsed seconds
Timing for main: time 2019-11-26_19:00:15 on domain   1:  109.58228 elapsed seconds
Timing for main: time 2019-11-26_19:00:30 on domain   1:    0.06305 elapsed seconds
Timing for main: time 2019-11-26_19:00:45 on domain   1:    0.06278 elapsed seconds
Timing for main: time 2019-11-26_19:01:00 on domain   1:    0.06376 elapsed seconds
Timing for main: time 2019-11-26_19:01:15 on domain   1:    0.06462 elapsed seconds
Timing for main: time 2019-11-26_19:01:30 on domain   1:    0.06587 elapsed seconds
Timing for main: time 2019-11-26_19:01:45 on domain   1:    0.06732 elapsed seconds
Timing for main: time 2019-11-26_19:02:00 on domain   1:    0.06511 elapsed seconds
Timing for main: time 2019-11-26_19:02:15 on domain   1:    0.06365 elapsed seconds
Timing for main: time 2019-11-26_19:02:30 on domain   1:    0.06392 elapsed seconds
Timing for main: time 2019-11-26_19:02:45 on domain   1:    0.06356 elapsed seconds
Timing for main: time 2019-11-26_19:03:00 on domain   1:    0.06562 elapsed seconds
Timing for main: time 2019-11-26_19:03:15 on domain   1:    0.06249 elapsed seconds
Timing for main: time 2019-11-26_19:03:30 on domain   1:    0.06397 elapsed seconds
Timing for main: time 2019-11-26_19:03:45 on domain   1:    0.06377 elapsed seconds
Timing for main: time 2019-11-26_19:04:00 on domain   1:    0.06313 elapsed seconds
Timing for main: time 2019-11-26_19:04:15 on domain   1:    0.06617 elapsed seconds
Timing for main: time 2019-11-26_19:04:30 on domain   1:    0.06248 elapsed seconds
Timing for main: time 2019-11-26_19:04:45 on domain   1:    0.06360 elapsed seconds
Timing for main: time 2019-11-26_19:05:00 on domain   1:    0.06358 elapsed seconds
Timing for main: time 2019-11-26_19:05:15 on domain   1:    0.06315 elapsed seconds
Timing for main: time 2019-11-26_19:05:30 on domain   1:    0.06372 elapsed seconds
Timing for main: time 2019-11-26_19:05:45 on domain   1:    0.06513 elapsed seconds
Timing for main: time 2019-11-26_19:06:00 on domain   1:    0.06339 elapsed seconds
Timing for main: time 2019-11-26_19:06:15 on domain   1:    0.06244 elapsed seconds
Timing for main: time 2019-11-26_19:06:30 on domain   1:    0.06304 elapsed seconds
Timing for main: time 2019-11-26_19:06:45 on domain   1:    0.06283 elapsed seconds
Timing for main: time 2019-11-26_19:07:00 on domain   1:    0.06235 elapsed seconds
Timing for main: time 2019-11-26_19:07:15 on domain   1:    0.06228 elapsed seconds
Timing for main: time 2019-11-26_19:07:30 on domain   1:    0.06384 elapsed seconds
Timing for main: time 2019-11-26_19:07:45 on domain   1:    0.06383 elapsed seconds
Timing for main: time 2019-11-26_19:08:00 on domain   1:    0.06240 elapsed seconds
Timing for main: time 2019-11-26_19:08:15 on domain   1:    0.06300 elapsed seconds
Timing for main: time 2019-11-26_19:08:30 on domain   1:    0.06355 elapsed seconds
Timing for main: time 2019-11-26_19:08:45 on domain   1:    0.06253 elapsed seconds
Timing for main: time 2019-11-26_19:09:00 on domain   1:    0.06305 elapsed seconds
Timing for main: time 2019-11-26_19:09:15 on domain   1:    0.06247 elapsed seconds
Timing for main: time 2019-11-26_19:09:30 on domain   1:    0.06978 elapsed seconds
Timing for main: time 2019-11-26_19:09:45 on domain   1:    0.06324 elapsed seconds
Timing for main: time 2019-11-26_19:10:00 on domain   1:    0.06244 elapsed seconds
Timing for main: time 2019-11-26_19:10:15 on domain   1:    0.53953 elapsed seconds
Timing for main: time 2019-11-26_19:10:30 on domain   1:    0.06250 elapsed seconds
Timing for main: time 2019-11-26_19:10:45 on domain   1:    0.06190 elapsed seconds
Timing for main: time 2019-11-26_19:11:00 on domain   1:    0.06341 elapsed seconds
Timing for main: time 2019-11-26_19:11:15 on domain   1:    0.06418 elapsed seconds
Timing for main: time 2019-11-26_19:11:30 on domain   1:    0.06698 elapsed seconds
Timing for main: time 2019-11-26_19:11:45 on domain   1:    0.06374 elapsed seconds
Timing for main: time 2019-11-26_19:12:00 on domain   1:    0.06380 elapsed seconds
Timing for main: time 2019-11-26_19:12:15 on domain   1:    0.06333 elapsed seconds
Timing for main: time 2019-11-26_19:12:30 on domain   1:    0.06425 elapsed seconds
Timing for main: time 2019-11-26_19:12:45 on domain   1:    0.06313 elapsed seconds
Timing for main: time 2019-11-26_19:13:00 on domain   1:    0.06312 elapsed seconds
Timing for main: time 2019-11-26_19:13:15 on domain   1:    0.06422 elapsed seconds
Timing for main: time 2019-11-26_19:13:30 on domain   1:    0.06614 elapsed seconds
Timing for main: time 2019-11-26_19:13:45 on domain   1:    0.06335 elapsed seconds
Timing for main: time 2019-11-26_19:14:00 on domain   1:    0.06333 elapsed seconds
Timing for main: time 2019-11-26_19:14:15 on domain   1:    0.06265 elapsed seconds
Timing for main: time 2019-11-26_19:14:30 on domain   1:    0.06262 elapsed seconds
Timing for main: time 2019-11-26_19:14:45 on domain   1:    0.06585 elapsed seconds
Timing for main: time 2019-11-26_19:15:00 on domain   1:    0.06299 elapsed seconds
Timing for main: time 2019-11-26_19:15:15 on domain   1:    0.06322 elapsed seconds
Timing for main: time 2019-11-26_19:15:30 on domain   1:    0.06367 elapsed seconds
Timing for main: time 2019-11-26_19:15:45 on domain   1:    0.06340 elapsed seconds
Timing for main: time 2019-11-26_19:16:00 on domain   1:    0.06359 elapsed seconds
Timing for main: time 2019-11-26_19:16:15 on domain   1:    0.06377 elapsed seconds
Timing for main: time 2019-11-26_19:16:30 on domain   1:    0.06627 elapsed seconds
Timing for main: time 2019-11-26_19:16:45 on domain   1:    0.06418 elapsed seconds
Timing for main: time 2019-11-26_19:17:00 on domain   1:    0.06452 elapsed seconds
Timing for main: time 2019-11-26_19:17:15 on domain   1:    0.06626 elapsed seconds
Timing for main: time 2019-11-26_19:17:30 on domain   1:    0.06283 elapsed seconds
Timing for main: time 2019-11-26_19:17:45 on domain   1:    0.08174 elapsed seconds
Timing for main: time 2019-11-26_19:18:00 on domain   1:    0.07267 elapsed seconds
Timing for main: time 2019-11-26_19:18:15 on domain   1:    0.06525 elapsed seconds
Timing for main: time 2019-11-26_19:18:30 on domain   1:    0.06529 elapsed seconds
Timing for main: time 2019-11-26_19:18:45 on domain   1:    0.06476 elapsed seconds
Timing for main: time 2019-11-26_19:19:00 on domain   1:    0.06580 elapsed seconds
Timing for main: time 2019-11-26_19:19:15 on domain   1:    0.06382 elapsed seconds
Timing for main: time 2019-11-26_19:19:30 on domain   1:    0.06735 elapsed seconds
Timing for main: time 2019-11-26_19:19:45 on domain   1:    0.06800 elapsed seconds
Timing for main: time 2019-11-26_19:20:00 on domain   1:    0.06366 elapsed seconds
Timing for main: time 2019-11-26_19:20:15 on domain   1:    0.54116 elapsed seconds
Timing for main: time 2019-11-26_19:20:30 on domain   1:    0.40789 elapsed seconds
Timing for main: time 2019-11-26_19:20:45 on domain   1:    0.06897 elapsed seconds
Timing for main: time 2019-11-26_19:21:00 on domain   1:    0.06369 elapsed seconds
Timing for main: time 2019-11-26_19:21:15 on domain   1:    0.06287 elapsed seconds
Timing for main: time 2019-11-26_19:21:30 on domain   1:    0.06372 elapsed seconds
Timing for main: time 2019-11-26_19:21:45 on domain   1:    0.06340 elapsed seconds
Timing for main: time 2019-11-26_19:22:00 on domain   1:    0.06377 elapsed seconds
Timing for main: time 2019-11-26_19:22:15 on domain   1:    0.06324 elapsed seconds
Timing for main: time 2019-11-26_19:22:30 on domain   1:    0.06303 elapsed seconds
Timing for main: time 2019-11-26_19:22:45 on domain   1:    0.06527 elapsed seconds
Timing for main: time 2019-11-26_19:23:00 on domain   1:    0.06360 elapsed seconds
Timing for main: time 2019-11-26_19:23:15 on domain   1:    0.06378 elapsed seconds
Timing for main: time 2019-11-26_19:23:30 on domain   1:    0.06495 elapsed seconds
Timing for main: time 2019-11-26_19:23:45 on domain   1:    0.06424 elapsed seconds
Timing for main: time 2019-11-26_19:24:00 on domain   1:    0.06365 elapsed seconds
Timing for main: time 2019-11-26_19:24:15 on domain   1:    0.06349 elapsed seconds
Timing for main: time 2019-11-26_19:24:30 on domain   1:    0.06653 elapsed seconds
Timing for main: time 2019-11-26_19:24:45 on domain   1:    0.06330 elapsed seconds
Timing for main: time 2019-11-26_19:25:00 on domain   1:    0.06871 elapsed seconds
Timing for main: time 2019-11-26_19:25:15 on domain   1:    0.06403 elapsed seconds
Timing for main: time 2019-11-26_19:25:30 on domain   1:    0.06391 elapsed seconds
Timing for main: time 2019-11-26_19:25:45 on domain   1:    0.06401 elapsed seconds
Timing for main: time 2019-11-26_19:26:00 on domain   1:    0.06329 elapsed seconds
Timing for main: time 2019-11-26_19:26:15 on domain   1:    0.06350 elapsed seconds
Timing for main: time 2019-11-26_19:26:30 on domain   1:    0.06366 elapsed seconds
Timing for main: time 2019-11-26_19:26:45 on domain   1:    0.06512 elapsed seconds
Timing for main: time 2019-11-26_19:27:00 on domain   1:    0.06371 elapsed seconds
Timing for main: time 2019-11-26_19:27:15 on domain   1:    0.06596 elapsed seconds
Timing for main: time 2019-11-26_19:27:30 on domain   1:    0.06323 elapsed seconds
Timing for main: time 2019-11-26_19:27:45 on domain   1:    0.06331 elapsed seconds
Timing for main: time 2019-11-26_19:28:00 on domain   1:    0.06395 elapsed seconds
Timing for main: time 2019-11-26_19:28:15 on domain   1:    0.06286 elapsed seconds
Timing for main: time 2019-11-26_19:28:30 on domain   1:    0.06412 elapsed seconds
Timing for main: time 2019-11-26_19:28:45 on domain   1:    0.06444 elapsed seconds
Timing for main: time 2019-11-26_19:29:00 on domain   1:    0.06407 elapsed seconds
Timing for main: time 2019-11-26_19:29:15 on domain   1:    0.06363 elapsed seconds
Timing for main: time 2019-11-26_19:29:30 on domain   1:    0.06571 elapsed seconds
Timing for main: time 2019-11-26_19:29:45 on domain   1:    0.06322 elapsed seconds
Timing for main: time 2019-11-26_19:30:00 on domain   1:    0.06341 elapsed seconds
Timing for main: time 2019-11-26_19:30:15 on domain   1:    0.54348 elapsed seconds
Timing for main: time 2019-11-26_19:30:30 on domain   1:    0.06183 elapsed seconds
Timing for main: time 2019-11-26_19:30:45 on domain   1:    0.06150 elapsed seconds
Timing for main: time 2019-11-26_19:31:00 on domain   1:    0.06323 elapsed seconds
Timing for main: time 2019-11-26_19:31:15 on domain   1:    0.06607 elapsed seconds
Timing for main: time 2019-11-26_19:31:30 on domain   1:    0.06600 elapsed seconds
Timing for main: time 2019-11-26_19:31:45 on domain   1:    0.06464 elapsed seconds
Timing for main: time 2019-11-26_19:32:00 on domain   1:    0.07115 elapsed seconds
Timing for main: time 2019-11-26_19:32:15 on domain   1:    0.06917 elapsed seconds
Timing for main: time 2019-11-26_19:32:30 on domain   1:    0.06786 elapsed seconds
Timing for main: time 2019-11-26_19:32:45 on domain   1:    0.06405 elapsed seconds
Timing for main: time 2019-11-26_19:33:00 on domain   1:    0.06391 elapsed seconds
Timing for main: time 2019-11-26_19:33:15 on domain   1:    0.06396 elapsed seconds
Timing for main: time 2019-11-26_19:33:30 on domain   1:    0.06399 elapsed seconds
Timing for main: time 2019-11-26_19:33:45 on domain   1:    0.06438 elapsed seconds
Timing for main: time 2019-11-26_19:34:00 on domain   1:    0.06745 elapsed seconds
Timing for main: time 2019-11-26_19:34:15 on domain   1:    0.06830 elapsed seconds
Timing for main: time 2019-11-26_19:34:30 on domain   1:    0.06419 elapsed seconds
Timing for main: time 2019-11-26_19:34:45 on domain   1:    0.06455 elapsed seconds
Timing for main: time 2019-11-26_19:35:00 on domain   1:    0.06378 elapsed seconds
Timing for main: time 2019-11-26_19:35:15 on domain   1:    0.06580 elapsed seconds
Timing for main: time 2019-11-26_19:35:30 on domain   1:    0.06541 elapsed seconds
Timing for main: time 2019-11-26_19:35:45 on domain   1:    0.06403 elapsed seconds
Timing for main: time 2019-11-26_19:36:00 on domain   1:    0.06821 elapsed seconds
Timing for main: time 2019-11-26_19:36:15 on domain   1:    0.06423 elapsed seconds
Timing for main: time 2019-11-26_19:36:30 on domain   1:    0.06420 elapsed seconds
Timing for main: time 2019-11-26_19:36:45 on domain   1:    0.06542 elapsed seconds
Timing for main: time 2019-11-26_19:37:00 on domain   1:    0.06851 elapsed seconds
Timing for main: time 2019-11-26_19:37:15 on domain   1:    0.07525 elapsed seconds
Timing for main: time 2019-11-26_19:37:30 on domain   1:    0.06215 elapsed seconds
Timing for main: time 2019-11-26_19:37:45 on domain   1:    0.06374 elapsed seconds
Timing for main: time 2019-11-26_19:38:00 on domain   1:    0.06427 elapsed seconds
Timing for main: time 2019-11-26_19:38:15 on domain   1:    0.06346 elapsed seconds
Timing for main: time 2019-11-26_19:38:30 on domain   1:    0.06359 elapsed seconds
Timing for main: time 2019-11-26_19:38:45 on domain   1:    0.06414 elapsed seconds
Timing for main: time 2019-11-26_19:39:00 on domain   1:    0.06625 elapsed seconds
Timing for main: time 2019-11-26_19:39:15 on domain   1:    0.06330 elapsed seconds
Timing for main: time 2019-11-26_19:39:30 on domain   1:    0.06539 elapsed seconds
Timing for main: time 2019-11-26_19:39:45 on domain   1:    0.06393 elapsed seconds
Timing for main: time 2019-11-26_19:40:00 on domain   1:    0.06301 elapsed seconds
Timing for main: time 2019-11-26_19:40:15 on domain   1:    0.53887 elapsed seconds
Timing for main: time 2019-11-26_19:40:30 on domain   1:    0.06303 elapsed seconds
Timing for main: time 2019-11-26_19:40:45 on domain   1:    0.06204 elapsed seconds
Timing for main: time 2019-11-26_19:41:00 on domain   1:    0.06326 elapsed seconds
Timing for main: time 2019-11-26_19:41:15 on domain   1:    0.06614 elapsed seconds
Timing for main: time 2019-11-26_19:41:30 on domain   1:    0.06535 elapsed seconds
Timing for main: time 2019-11-26_19:41:45 on domain   1:    0.06576 elapsed seconds
Timing for main: time 2019-11-26_19:42:00 on domain   1:    0.06625 elapsed seconds
Timing for main: time 2019-11-26_19:42:15 on domain   1:    0.06408 elapsed seconds
Timing for main: time 2019-11-26_19:42:30 on domain   1:    0.06371 elapsed seconds
Timing for main: time 2019-11-26_19:42:45 on domain   1:    0.06428 elapsed seconds
Timing for main: time 2019-11-26_19:43:00 on domain   1:    0.06387 elapsed seconds
Timing for main: time 2019-11-26_19:43:15 on domain   1:    0.06395 elapsed seconds
Timing for main: time 2019-11-26_19:43:30 on domain   1:    0.06417 elapsed seconds
Timing for main: time 2019-11-26_19:43:45 on domain   1:    0.06429 elapsed seconds
Timing for main: time 2019-11-26_19:44:00 on domain   1:    0.06586 elapsed seconds
Timing for main: time 2019-11-26_19:44:15 on domain   1:    0.06370 elapsed seconds
Timing for main: time 2019-11-26_19:44:30 on domain   1:    0.06501 elapsed seconds
Timing for main: time 2019-11-26_19:44:45 on domain   1:    0.06889 elapsed seconds
Timing for main: time 2019-11-26_19:45:00 on domain   1:    0.06824 elapsed seconds
Timing for main: time 2019-11-26_19:45:15 on domain   1:    0.06345 elapsed seconds
Timing for main: time 2019-11-26_19:45:30 on domain   1:    0.06517 elapsed seconds
Timing for main: time 2019-11-26_19:45:45 on domain   1:    0.06407 elapsed seconds
Timing for main: time 2019-11-26_19:46:00 on domain   1:    0.06928 elapsed seconds
Timing for main: time 2019-11-26_19:46:15 on domain   1:    0.08916 elapsed seconds
Timing for main: time 2019-11-26_19:46:30 on domain   1:    0.06606 elapsed seconds
Timing for main: time 2019-11-26_19:46:45 on domain   1:    0.06309 elapsed seconds
Timing for main: time 2019-11-26_19:47:00 on domain   1:    0.06381 elapsed seconds
Timing for main: time 2019-11-26_19:47:15 on domain   1:    0.06442 elapsed seconds
Timing for main: time 2019-11-26_19:47:30 on domain   1:    0.06501 elapsed seconds
Timing for main: time 2019-11-26_19:47:45 on domain   1:    0.06399 elapsed seconds
Timing for main: time 2019-11-26_19:48:00 on domain   1:    0.06428 elapsed seconds
Timing for main: time 2019-11-26_19:48:15 on domain   1:    0.06439 elapsed seconds
Timing for main: time 2019-11-26_19:48:30 on domain   1:    0.06435 elapsed seconds
Timing for main: time 2019-11-26_19:48:45 on domain   1:    0.06439 elapsed seconds
Timing for main: time 2019-11-26_19:49:00 on domain   1:    0.06384 elapsed seconds
Timing for main: time 2019-11-26_19:49:15 on domain   1:    0.06483 elapsed seconds
Timing for main: time 2019-11-26_19:49:30 on domain   1:    0.06513 elapsed seconds
Timing for main: time 2019-11-26_19:49:45 on domain   1:    0.06411 elapsed seconds
Timing for main: time 2019-11-26_19:50:00 on domain   1:    0.06500 elapsed seconds
Timing for main: time 2019-11-26_19:50:15 on domain   1:    0.54521 elapsed seconds
Timing for main: time 2019-11-26_19:50:30 on domain   1:    0.06313 elapsed seconds
Timing for main: time 2019-11-26_19:50:45 on domain   1:    0.06315 elapsed seconds
Timing for main: time 2019-11-26_19:51:00 on domain   1:    0.06596 elapsed seconds
Timing for main: time 2019-11-26_19:51:15 on domain   1:    0.06582 elapsed seconds
Timing for main: time 2019-11-26_19:51:30 on domain   1:    0.06573 elapsed seconds
Timing for main: time 2019-11-26_19:51:45 on domain   1:    0.06445 elapsed seconds
Timing for main: time 2019-11-26_19:52:00 on domain   1:    0.06567 elapsed seconds
Timing for main: time 2019-11-26_19:52:15 on domain   1:    0.06483 elapsed seconds
Timing for main: time 2019-11-26_19:52:30 on domain   1:    0.06409 elapsed seconds
Timing for main: time 2019-11-26_19:52:45 on domain   1:    0.05739 elapsed seconds
Timing for main: time 2019-11-26_19:53:00 on domain   1:    0.06402 elapsed seconds
Timing for main: time 2019-11-26_19:53:15 on domain   1:    0.06368 elapsed seconds
Timing for main: time 2019-11-26_19:53:30 on domain   1:    0.06409 elapsed seconds
Timing for main: time 2019-11-26_19:53:45 on domain   1:    0.06361 elapsed seconds
Timing for main: time 2019-11-26_19:54:00 on domain   1:    0.06442 elapsed seconds
Timing for main: time 2019-11-26_19:54:15 on domain   1:    0.06387 elapsed seconds
Timing for main: time 2019-11-26_19:54:30 on domain   1:    0.06555 elapsed seconds
Timing for main: time 2019-11-26_19:54:45 on domain   1:    0.06446 elapsed seconds
Timing for main: time 2019-11-26_19:55:00 on domain   1:    0.06513 elapsed seconds
Timing for main: time 2019-11-26_19:55:15 on domain   1:    0.06336 elapsed seconds
Timing for main: time 2019-11-26_19:55:30 on domain   1:    0.06429 elapsed seconds
Timing for main: time 2019-11-26_19:55:45 on domain   1:    0.06387 elapsed seconds
Timing for main: time 2019-11-26_19:56:00 on domain   1:    0.06392 elapsed seconds
Timing for main: time 2019-11-26_19:56:15 on domain   1:    0.06490 elapsed seconds
Timing for main: time 2019-11-26_19:56:30 on domain   1:    0.06623 elapsed seconds
Timing for main: time 2019-11-26_19:56:45 on domain   1:    0.06761 elapsed seconds
Timing for main: time 2019-11-26_19:57:00 on domain   1:    0.06492 elapsed seconds
Timing for main: time 2019-11-26_19:57:15 on domain   1:    0.06409 elapsed seconds
Timing for main: time 2019-11-26_19:57:30 on domain   1:    0.06359 elapsed seconds
Timing for main: time 2019-11-26_19:57:45 on domain   1:    0.06489 elapsed seconds
Timing for main: time 2019-11-26_19:58:00 on domain   1:    0.06466 elapsed seconds
Timing for main: time 2019-11-26_19:58:15 on domain   1:    0.06410 elapsed seconds
Timing for main: time 2019-11-26_19:58:30 on domain   1:    0.06382 elapsed seconds
Timing for main: time 2019-11-26_19:58:45 on domain   1:    0.06414 elapsed seconds
Timing for main: time 2019-11-26_19:59:00 on domain   1:    0.06390 elapsed seconds
Timing for main: time 2019-11-26_19:59:15 on domain   1:    0.06399 elapsed seconds
Timing for main: time 2019-11-26_19:59:30 on domain   1:    0.06512 elapsed seconds
Timing for main: time 2019-11-26_19:59:45 on domain   1:    0.06438 elapsed seconds
Timing for main: time 2019-11-26_20:00:00 on domain   1:    0.06310 elapsed seconds
Timing for Writing wrfout_d01_2019-11-26_20:00:00 for domain        1:  110.97086 elapsed seconds
Timing for main: time 2019-11-26_20:00:15 on domain   1:  111.51576 elapsed seconds
Timing for main: time 2019-11-26_20:00:30 on domain   1:    0.06295 elapsed seconds
Timing for main: time 2019-11-26_20:00:45 on domain   1:    0.06344 elapsed seconds
Timing for main: time 2019-11-26_20:01:00 on domain   1:    0.06957 elapsed seconds
Timing for main: time 2019-11-26_20:01:15 on domain   1:    0.06594 elapsed seconds
Timing for main: time 2019-11-26_20:01:30 on domain   1:    0.06605 elapsed seconds
Timing for main: time 2019-11-26_20:01:45 on domain   1:    0.06736 elapsed seconds
Timing for main: time 2019-11-26_20:02:00 on domain   1:    0.06646 elapsed seconds
Timing for main: time 2019-11-26_20:02:15 on domain   1:    0.06658 elapsed seconds
Timing for main: time 2019-11-26_20:02:30 on domain   1:    0.06680 elapsed seconds
Timing for main: time 2019-11-26_20:02:45 on domain   1:    0.06533 elapsed seconds
Timing for main: time 2019-11-26_20:03:00 on domain   1:    0.06397 elapsed seconds
Timing for main: time 2019-11-26_20:03:15 on domain   1:    0.06574 elapsed seconds
Timing for main: time 2019-11-26_20:03:30 on domain   1:    0.06540 elapsed seconds
Timing for main: time 2019-11-26_20:03:45 on domain   1:    0.06438 elapsed seconds
Timing for main: time 2019-11-26_20:04:00 on domain   1:    0.06491 elapsed seconds
Timing for main: time 2019-11-26_20:04:15 on domain   1:    0.06506 elapsed seconds
Timing for main: time 2019-11-26_20:04:30 on domain   1:    0.06516 elapsed seconds
Timing for main: time 2019-11-26_20:04:45 on domain   1:    0.06377 elapsed seconds
Timing for main: time 2019-11-26_20:05:00 on domain   1:    0.06457 elapsed seconds
Timing for main: time 2019-11-26_20:05:15 on domain   1:    0.06526 elapsed seconds
Timing for main: time 2019-11-26_20:05:30 on domain   1:    0.06511 elapsed seconds
Timing for main: time 2019-11-26_20:05:45 on domain   1:    0.06491 elapsed seconds
Timing for main: time 2019-11-26_20:06:00 on domain   1:    0.06389 elapsed seconds
Timing for main: time 2019-11-26_20:06:15 on domain   1:    0.06475 elapsed seconds
Timing for main: time 2019-11-26_20:06:30 on domain   1:    0.06343 elapsed seconds
Timing for main: time 2019-11-26_20:06:45 on domain   1:    0.06451 elapsed seconds
Timing for main: time 2019-11-26_20:07:00 on domain   1:    0.06495 elapsed seconds
Timing for main: time 2019-11-26_20:07:15 on domain   1:    0.06434 elapsed seconds
Timing for main: time 2019-11-26_20:07:30 on domain   1:    0.06424 elapsed seconds
Timing for main: time 2019-11-26_20:07:45 on domain   1:    0.06447 elapsed seconds
Timing for main: time 2019-11-26_20:08:00 on domain   1:    0.06391 elapsed seconds
Timing for main: time 2019-11-26_20:08:15 on domain   1:    0.06563 elapsed seconds
Timing for main: time 2019-11-26_20:08:30 on domain   1:    0.06458 elapsed seconds
Timing for main: time 2019-11-26_20:08:45 on domain   1:    0.06387 elapsed seconds
Timing for main: time 2019-11-26_20:09:00 on domain   1:    0.06458 elapsed seconds
Timing for main: time 2019-11-26_20:09:15 on domain   1:    0.06519 elapsed seconds
Timing for main: time 2019-11-26_20:09:30 on domain   1:    0.06553 elapsed seconds
Timing for main: time 2019-11-26_20:09:45 on domain   1:    0.06505 elapsed seconds
Timing for main: time 2019-11-26_20:10:00 on domain   1:    0.06381 elapsed seconds
Timing for main: time 2019-11-26_20:10:15 on domain   1:    0.54364 elapsed seconds
Timing for main: time 2019-11-26_20:10:30 on domain   1:    0.06415 elapsed seconds
Timing for main: time 2019-11-26_20:10:45 on domain   1:    0.06348 elapsed seconds
Timing for main: time 2019-11-26_20:11:00 on domain   1:    0.07049 elapsed seconds
Timing for main: time 2019-11-26_20:11:15 on domain   1:    0.06422 elapsed seconds
Timing for main: time 2019-11-26_20:11:30 on domain   1:    0.06683 elapsed seconds
Timing for main: time 2019-11-26_20:11:45 on domain   1:    0.06561 elapsed seconds
Timing for main: time 2019-11-26_20:12:00 on domain   1:    0.06537 elapsed seconds
Timing for main: time 2019-11-26_20:12:15 on domain   1:    0.06640 elapsed seconds
Timing for main: time 2019-11-26_20:12:30 on domain   1:    0.06535 elapsed seconds
Timing for main: time 2019-11-26_20:12:45 on domain   1:    0.06627 elapsed seconds
Timing for main: time 2019-11-26_20:13:00 on domain   1:    0.06620 elapsed seconds
Timing for main: time 2019-11-26_20:13:15 on domain   1:    0.06544 elapsed seconds
Timing for main: time 2019-11-26_20:13:30 on domain   1:    0.06548 elapsed seconds
Timing for main: time 2019-11-26_20:13:45 on domain   1:    0.06611 elapsed seconds
Timing for main: time 2019-11-26_20:14:00 on domain   1:    0.06640 elapsed seconds
Timing for main: time 2019-11-26_20:14:15 on domain   1:    0.06405 elapsed seconds
Timing for main: time 2019-11-26_20:14:30 on domain   1:    0.06663 elapsed seconds
Timing for main: time 2019-11-26_20:14:45 on domain   1:    0.06505 elapsed seconds
Timing for main: time 2019-11-26_20:15:00 on domain   1:    0.06601 elapsed seconds
Timing for main: time 2019-11-26_20:15:15 on domain   1:    0.06614 elapsed seconds
Timing for main: time 2019-11-26_20:15:30 on domain   1:    0.06734 elapsed seconds
Timing for main: time 2019-11-26_20:15:45 on domain   1:    0.06672 elapsed seconds
Timing for main: time 2019-11-26_20:16:00 on domain   1:    0.06699 elapsed seconds
Timing for main: time 2019-11-26_20:16:15 on domain   1:    0.06630 elapsed seconds
Timing for main: time 2019-11-26_20:16:30 on domain   1:    0.06881 elapsed seconds
Timing for main: time 2019-11-26_20:16:45 on domain   1:    0.06737 elapsed seconds
Timing for main: time 2019-11-26_20:17:00 on domain   1:    1.72125 elapsed seconds
Timing for main: time 2019-11-26_20:17:15 on domain   1:    0.06810 elapsed seconds
Timing for main: time 2019-11-26_20:17:30 on domain   1:    0.06483 elapsed seconds
Timing for main: time 2019-11-26_20:17:45 on domain   1:    0.06445 elapsed seconds
Timing for main: time 2019-11-26_20:18:00 on domain   1:    0.06425 elapsed seconds
Timing for main: time 2019-11-26_20:18:15 on domain   1:    0.06780 elapsed seconds
Timing for main: time 2019-11-26_20:18:30 on domain   1:    0.06926 elapsed seconds
Timing for main: time 2019-11-26_20:18:45 on domain   1:    0.06808 elapsed seconds
Timing for main: time 2019-11-26_20:19:00 on domain   1:    0.06632 elapsed seconds
Timing for main: time 2019-11-26_20:19:15 on domain   1:    0.06625 elapsed seconds
Timing for main: time 2019-11-26_20:19:30 on domain   1:    0.06487 elapsed seconds
Timing for main: time 2019-11-26_20:19:45 on domain   1:    0.06703 elapsed seconds
Timing for main: time 2019-11-26_20:20:00 on domain   1:    0.06566 elapsed seconds
Timing for main: time 2019-11-26_20:20:15 on domain   1:    0.54288 elapsed seconds
Timing for main: time 2019-11-26_20:20:30 on domain   1:    0.06591 elapsed seconds
Timing for main: time 2019-11-26_20:20:45 on domain   1:    0.06521 elapsed seconds
Timing for main: time 2019-11-26_20:21:00 on domain   1:    0.06435 elapsed seconds
Timing for main: time 2019-11-26_20:21:15 on domain   1:    0.06962 elapsed seconds
Timing for main: time 2019-11-26_20:21:30 on domain   1:    0.06921 elapsed seconds
Timing for main: time 2019-11-26_20:21:45 on domain   1:    0.06781 elapsed seconds
Timing for main: time 2019-11-26_20:22:00 on domain   1:    0.07055 elapsed seconds
Timing for main: time 2019-11-26_20:22:15 on domain   1:    0.06706 elapsed seconds
Timing for main: time 2019-11-26_20:22:30 on domain   1:    0.06657 elapsed seconds
Timing for main: time 2019-11-26_20:22:45 on domain   1:    0.06682 elapsed seconds
Timing for main: time 2019-11-26_20:23:00 on domain   1:    0.06672 elapsed seconds
Timing for main: time 2019-11-26_20:23:15 on domain   1:    0.06882 elapsed seconds
Timing for main: time 2019-11-26_20:23:30 on domain   1:    0.06868 elapsed seconds
Timing for main: time 2019-11-26_20:23:45 on domain   1:    0.06757 elapsed seconds
Timing for main: time 2019-11-26_20:24:00 on domain   1:    0.06591 elapsed seconds
Timing for main: time 2019-11-26_20:24:15 on domain   1:    0.06865 elapsed seconds
Timing for main: time 2019-11-26_20:24:30 on domain   1:    0.06624 elapsed seconds
Timing for main: time 2019-11-26_20:24:45 on domain   1:    0.06659 elapsed seconds
Timing for main: time 2019-11-26_20:25:00 on domain   1:    0.06806 elapsed seconds
Timing for main: time 2019-11-26_20:25:15 on domain   1:    0.06859 elapsed seconds
Timing for main: time 2019-11-26_20:25:30 on domain   1:    0.06564 elapsed seconds
Timing for main: time 2019-11-26_20:25:45 on domain   1:    0.06847 elapsed seconds
Timing for main: time 2019-11-26_20:26:00 on domain   1:    0.06714 elapsed seconds
Timing for main: time 2019-11-26_20:26:15 on domain   1:    0.06747 elapsed seconds
Timing for main: time 2019-11-26_20:26:30 on domain   1:    0.06860 elapsed seconds
Timing for main: time 2019-11-26_20:26:45 on domain   1:    0.06671 elapsed seconds
Timing for main: time 2019-11-26_20:27:00 on domain   1:    0.06612 elapsed seconds
Timing for main: time 2019-11-26_20:27:15 on domain   1:    0.06713 elapsed seconds
Timing for main: time 2019-11-26_20:27:30 on domain   1:    0.06659 elapsed seconds
Timing for main: time 2019-11-26_20:27:45 on domain   1:    0.06857 elapsed seconds
Timing for main: time 2019-11-26_20:28:00 on domain   1:    0.06484 elapsed seconds
Timing for main: time 2019-11-26_20:28:15 on domain   1:    0.06686 elapsed seconds
Timing for main: time 2019-11-26_20:28:30 on domain   1:    0.06577 elapsed seconds
Timing for main: time 2019-11-26_20:28:45 on domain   1:    0.06925 elapsed seconds
Timing for main: time 2019-11-26_20:29:00 on domain   1:    0.06639 elapsed seconds
Timing for main: time 2019-11-26_20:29:15 on domain   1:    0.06716 elapsed seconds
Timing for main: time 2019-11-26_20:29:30 on domain   1:    0.06762 elapsed seconds
Timing for main: time 2019-11-26_20:29:45 on domain   1:    0.06795 elapsed seconds
Timing for main: time 2019-11-26_20:30:00 on domain   1:    0.06753 elapsed seconds
Timing for main: time 2019-11-26_20:30:15 on domain   1:    0.54488 elapsed seconds
Timing for main: time 2019-11-26_20:30:30 on domain   1:    0.06545 elapsed seconds
Timing for main: time 2019-11-26_20:30:45 on domain   1:    0.06555 elapsed seconds
Timing for main: time 2019-11-26_20:31:00 on domain   1:    0.06954 elapsed seconds
Timing for main: time 2019-11-26_20:31:15 on domain   1:    0.06924 elapsed seconds
Timing for main: time 2019-11-26_20:31:30 on domain   1:    0.06814 elapsed seconds
Timing for main: time 2019-11-26_20:31:45 on domain   1:    0.06771 elapsed seconds
Timing for main: time 2019-11-26_20:32:00 on domain   1:    0.06603 elapsed seconds
Timing for main: time 2019-11-26_20:32:15 on domain   1:    0.06571 elapsed seconds
Timing for main: time 2019-11-26_20:32:30 on domain   1:    0.06782 elapsed seconds
Timing for main: time 2019-11-26_20:32:45 on domain   1:    0.06484 elapsed seconds
Timing for main: time 2019-11-26_20:33:00 on domain   1:    0.06569 elapsed seconds
Timing for main: time 2019-11-26_20:33:15 on domain   1:    0.06600 elapsed seconds
Timing for main: time 2019-11-26_20:33:30 on domain   1:    0.06666 elapsed seconds
Timing for main: time 2019-11-26_20:33:45 on domain   1:    0.06779 elapsed seconds
Timing for main: time 2019-11-26_20:34:00 on domain   1:    0.06484 elapsed seconds
Timing for main: time 2019-11-26_20:34:15 on domain   1:    0.06515 elapsed seconds
Timing for main: time 2019-11-26_20:34:30 on domain   1:    0.06688 elapsed seconds
Timing for main: time 2019-11-26_20:34:45 on domain   1:    0.06543 elapsed seconds
Timing for main: time 2019-11-26_20:35:00 on domain   1:    0.06654 elapsed seconds
Timing for main: time 2019-11-26_20:35:15 on domain   1:    0.06596 elapsed seconds
Timing for main: time 2019-11-26_20:35:30 on domain   1:    0.06599 elapsed seconds
Timing for main: time 2019-11-26_20:35:45 on domain   1:    0.06638 elapsed seconds
Timing for main: time 2019-11-26_20:36:00 on domain   1:    0.06686 elapsed seconds
Timing for main: time 2019-11-26_20:36:15 on domain   1:    0.06511 elapsed seconds
Timing for main: time 2019-11-26_20:36:30 on domain   1:    0.06912 elapsed seconds
Timing for main: time 2019-11-26_20:36:45 on domain   1:    0.06496 elapsed seconds
Timing for main: time 2019-11-26_20:37:00 on domain   1:    0.06587 elapsed seconds
Timing for main: time 2019-11-26_20:37:15 on domain   1:    0.06590 elapsed seconds
Timing for main: time 2019-11-26_20:37:30 on domain   1:    0.06706 elapsed seconds
Timing for main: time 2019-11-26_20:37:45 on domain   1:    0.06947 elapsed seconds
Timing for main: time 2019-11-26_20:38:00 on domain   1:    0.06612 elapsed seconds
Timing for main: time 2019-11-26_20:38:15 on domain   1:    0.06487 elapsed seconds
Timing for main: time 2019-11-26_20:38:30 on domain   1:    0.06605 elapsed seconds
Timing for main: time 2019-11-26_20:38:45 on domain   1:    0.06858 elapsed seconds
Timing for main: time 2019-11-26_20:39:00 on domain   1:    0.06697 elapsed seconds
Timing for main: time 2019-11-26_20:39:15 on domain   1:    0.06462 elapsed seconds
Timing for main: time 2019-11-26_20:39:30 on domain   1:    0.06501 elapsed seconds
Timing for main: time 2019-11-26_20:39:45 on domain   1:    0.06840 elapsed seconds
Timing for main: time 2019-11-26_20:40:00 on domain   1:    0.06414 elapsed seconds
Timing for main: time 2019-11-26_20:40:15 on domain   1:    0.54313 elapsed seconds
Timing for main: time 2019-11-26_20:40:30 on domain   1:    0.06455 elapsed seconds
Timing for main: time 2019-11-26_20:40:45 on domain   1:    0.06322 elapsed seconds
Timing for main: time 2019-11-26_20:41:00 on domain   1:    0.06456 elapsed seconds
Timing for main: time 2019-11-26_20:41:15 on domain   1:    0.06819 elapsed seconds
Timing for main: time 2019-11-26_20:41:30 on domain   1:    0.07174 elapsed seconds
Timing for main: time 2019-11-26_20:41:45 on domain   1:    0.06406 elapsed seconds
Timing for main: time 2019-11-26_20:42:00 on domain   1:    0.06497 elapsed seconds
Timing for main: time 2019-11-26_20:42:15 on domain   1:    0.06578 elapsed seconds
Timing for main: time 2019-11-26_20:42:30 on domain   1:    0.06441 elapsed seconds
Timing for main: time 2019-11-26_20:42:45 on domain   1:    0.06694 elapsed seconds
Timing for main: time 2019-11-26_20:43:00 on domain   1:    0.06585 elapsed seconds
Timing for main: time 2019-11-26_20:43:15 on domain   1:    0.06436 elapsed seconds
Timing for main: time 2019-11-26_20:43:30 on domain   1:    0.06880 elapsed seconds
Timing for main: time 2019-11-26_20:43:45 on domain   1:    0.06449 elapsed seconds
Timing for main: time 2019-11-26_20:44:00 on domain   1:    0.06019 elapsed seconds
Timing for main: time 2019-11-26_20:44:15 on domain   1:    0.06700 elapsed seconds
Timing for main: time 2019-11-26_20:44:30 on domain   1:    0.06548 elapsed seconds
Timing for main: time 2019-11-26_20:44:45 on domain   1:    0.06469 elapsed seconds
Timing for main: time 2019-11-26_20:45:00 on domain   1:    0.06642 elapsed seconds
Timing for main: time 2019-11-26_20:45:15 on domain   1:    0.07121 elapsed seconds
Timing for main: time 2019-11-26_20:45:30 on domain   1:    0.06823 elapsed seconds
Timing for main: time 2019-11-26_20:45:45 on domain   1:    0.06762 elapsed seconds
Timing for main: time 2019-11-26_20:46:00 on domain   1:    0.06599 elapsed seconds
Timing for main: time 2019-11-26_20:46:15 on domain   1:    0.06779 elapsed seconds
Timing for main: time 2019-11-26_20:46:30 on domain   1:    0.06594 elapsed seconds
Timing for main: time 2019-11-26_20:46:45 on domain   1:    0.06598 elapsed seconds
Timing for main: time 2019-11-26_20:47:00 on domain   1:    0.06524 elapsed seconds
Timing for main: time 2019-11-26_20:47:15 on domain   1:    0.06589 elapsed seconds
Timing for main: time 2019-11-26_20:47:30 on domain   1:    0.06548 elapsed seconds
Timing for main: time 2019-11-26_20:47:45 on domain   1:    0.06664 elapsed seconds
Timing for main: time 2019-11-26_20:48:00 on domain   1:    0.06615 elapsed seconds
Timing for main: time 2019-11-26_20:48:15 on domain   1:    0.06534 elapsed seconds
Timing for main: time 2019-11-26_20:48:30 on domain   1:    0.06572 elapsed seconds
Timing for main: time 2019-11-26_20:48:45 on domain   1:    0.06597 elapsed seconds
Timing for main: time 2019-11-26_20:49:00 on domain   1:    0.06875 elapsed seconds
Timing for main: time 2019-11-26_20:49:15 on domain   1:    0.06568 elapsed seconds
Timing for main: time 2019-11-26_20:49:30 on domain   1:    0.06500 elapsed seconds
Timing for main: time 2019-11-26_20:49:45 on domain   1:    0.06750 elapsed seconds
Timing for main: time 2019-11-26_20:50:00 on domain   1:    0.06767 elapsed seconds
Timing for main: time 2019-11-26_20:50:15 on domain   1:    0.54120 elapsed seconds
Timing for main: time 2019-11-26_20:50:30 on domain   1:    0.06362 elapsed seconds
Timing for main: time 2019-11-26_20:50:45 on domain   1:    0.06410 elapsed seconds
Timing for main: time 2019-11-26_20:51:00 on domain   1:    0.06655 elapsed seconds
Timing for main: time 2019-11-26_20:51:15 on domain   1:    0.06585 elapsed seconds
Timing for main: time 2019-11-26_20:51:30 on domain   1:    0.06502 elapsed seconds
Timing for main: time 2019-11-26_20:51:45 on domain   1:    0.06635 elapsed seconds
Timing for main: time 2019-11-26_20:52:00 on domain   1:    0.06618 elapsed seconds
Timing for main: time 2019-11-26_20:52:15 on domain   1:    0.06495 elapsed seconds
Timing for main: time 2019-11-26_20:52:30 on domain   1:    0.06589 elapsed seconds
Timing for main: time 2019-11-26_20:52:45 on domain   1:    0.06517 elapsed seconds
Timing for main: time 2019-11-26_20:53:00 on domain   1:    0.06544 elapsed seconds
Timing for main: time 2019-11-26_20:53:15 on domain   1:    0.06545 elapsed seconds
Timing for main: time 2019-11-26_20:53:30 on domain   1:    0.06595 elapsed seconds
Timing for main: time 2019-11-26_20:53:45 on domain   1:    0.06692 elapsed seconds
Timing for main: time 2019-11-26_20:54:00 on domain   1:    0.07060 elapsed seconds
Timing for main: time 2019-11-26_20:54:15 on domain   1:    0.06534 elapsed seconds
Timing for main: time 2019-11-26_20:54:30 on domain   1:    0.06540 elapsed seconds
Timing for main: time 2019-11-26_20:54:45 on domain   1:    0.06554 elapsed seconds
Timing for main: time 2019-11-26_20:55:00 on domain   1:    0.06560 elapsed seconds
Timing for main: time 2019-11-26_20:55:15 on domain   1:    0.06521 elapsed seconds
Timing for main: time 2019-11-26_20:55:30 on domain   1:    0.06575 elapsed seconds
Timing for main: time 2019-11-26_20:55:45 on domain   1:    0.06591 elapsed seconds
Timing for main: time 2019-11-26_20:56:00 on domain   1:    0.06453 elapsed seconds
Timing for main: time 2019-11-26_20:56:15 on domain   1:    0.06640 elapsed seconds
Timing for main: time 2019-11-26_20:56:30 on domain   1:    0.06567 elapsed seconds
Timing for main: time 2019-11-26_20:56:45 on domain   1:    0.06559 elapsed seconds
Timing for main: time 2019-11-26_20:57:00 on domain   1:    0.06581 elapsed seconds
Timing for main: time 2019-11-26_20:57:15 on domain   1:    0.06599 elapsed seconds
Timing for main: time 2019-11-26_20:57:30 on domain   1:    0.06879 elapsed seconds
Timing for main: time 2019-11-26_20:57:45 on domain   1:    0.06554 elapsed seconds
Timing for main: time 2019-11-26_20:58:00 on domain   1:    0.06627 elapsed seconds
Timing for main: time 2019-11-26_20:58:15 on domain   1:    0.06566 elapsed seconds
Timing for main: time 2019-11-26_20:58:30 on domain   1:    0.06607 elapsed seconds
Timing for main: time 2019-11-26_20:58:45 on domain   1:    0.06583 elapsed seconds
Timing for main: time 2019-11-26_20:59:00 on domain   1:    0.06571 elapsed seconds
Timing for main: time 2019-11-26_20:59:15 on domain   1:    0.06508 elapsed seconds
Timing for main: time 2019-11-26_20:59:30 on domain   1:    0.06641 elapsed seconds
Timing for main: time 2019-11-26_20:59:45 on domain   1:    0.06503 elapsed seconds
Timing for main: time 2019-11-26_21:00:00 on domain   1:    0.06871 elapsed seconds
Timing for Writing wrfout_d01_2019-11-26_21:00:00 for domain        1:  112.57362 elapsed seconds
 Input data is acceptable to use: wrfbdy_d01
Timing for processing lateral boundary for domain        1:    8.36626 elapsed seconds
Timing for main: time 2019-11-26_21:00:15 on domain   1:  121.48521 elapsed seconds
Timing for main: time 2019-11-26_21:00:30 on domain   1:    0.06943 elapsed seconds
Timing for main: time 2019-11-26_21:00:45 on domain   1:    0.06679 elapsed seconds
Timing for main: time 2019-11-26_21:01:00 on domain   1:    0.06616 elapsed seconds
Timing for main: time 2019-11-26_21:01:15 on domain   1:    0.06572 elapsed seconds
Timing for main: time 2019-11-26_21:01:30 on domain   1:    0.06464 elapsed seconds
Timing for main: time 2019-11-26_21:01:45 on domain   1:    0.06539 elapsed seconds
Timing for main: time 2019-11-26_21:02:00 on domain   1:    0.06459 elapsed seconds
Timing for main: time 2019-11-26_21:02:15 on domain   1:    0.06507 elapsed seconds
Timing for main: time 2019-11-26_21:02:30 on domain   1:    0.06636 elapsed seconds
Timing for main: time 2019-11-26_21:02:45 on domain   1:    0.06799 elapsed seconds
Timing for main: time 2019-11-26_21:03:00 on domain   1:    0.06447 elapsed seconds
Timing for main: time 2019-11-26_21:03:15 on domain   1:    0.06610 elapsed seconds
Timing for main: time 2019-11-26_21:03:30 on domain   1:    0.06402 elapsed seconds
Timing for main: time 2019-11-26_21:03:45 on domain   1:    0.06574 elapsed seconds
Timing for main: time 2019-11-26_21:04:00 on domain   1:    0.06483 elapsed seconds
Timing for main: time 2019-11-26_21:04:15 on domain   1:    0.06624 elapsed seconds
Timing for main: time 2019-11-26_21:04:30 on domain   1:    0.06507 elapsed seconds
Timing for main: time 2019-11-26_21:04:45 on domain   1:    0.06537 elapsed seconds
Timing for main: time 2019-11-26_21:05:00 on domain   1:    0.06510 elapsed seconds
Timing for main: time 2019-11-26_21:05:15 on domain   1:    0.06537 elapsed seconds
Timing for main: time 2019-11-26_21:05:30 on domain   1:    0.06502 elapsed seconds
Timing for main: time 2019-11-26_21:05:45 on domain   1:    0.06459 elapsed seconds
Timing for main: time 2019-11-26_21:06:00 on domain   1:    0.06489 elapsed seconds
Timing for main: time 2019-11-26_21:06:15 on domain   1:    0.06948 elapsed seconds
Timing for main: time 2019-11-26_21:06:30 on domain   1:    0.06442 elapsed seconds
Timing for main: time 2019-11-26_21:06:45 on domain   1:    0.07232 elapsed seconds
Timing for main: time 2019-11-26_21:07:00 on domain   1:    0.07281 elapsed seconds
Timing for main: time 2019-11-26_21:07:15 on domain   1:    0.06329 elapsed seconds
Timing for main: time 2019-11-26_21:07:30 on domain   1:    0.06764 elapsed seconds
Timing for main: time 2019-11-26_21:07:45 on domain   1:    0.06527 elapsed seconds
Timing for main: time 2019-11-26_21:08:00 on domain   1:    0.06522 elapsed seconds
Timing for main: time 2019-11-26_21:08:15 on domain   1:    0.06562 elapsed seconds
Timing for main: time 2019-11-26_21:08:30 on domain   1:    0.06476 elapsed seconds
Timing for main: time 2019-11-26_21:08:45 on domain   1:    0.06800 elapsed seconds
Timing for main: time 2019-11-26_21:09:00 on domain   1:    0.06666 elapsed seconds
Timing for main: time 2019-11-26_21:09:15 on domain   1:    0.06550 elapsed seconds
Timing for main: time 2019-11-26_21:09:30 on domain   1:    0.06609 elapsed seconds
Timing for main: time 2019-11-26_21:09:45 on domain   1:    0.06562 elapsed seconds
Timing for main: time 2019-11-26_21:10:00 on domain   1:    0.06578 elapsed seconds
Timing for main: time 2019-11-26_21:10:15 on domain   1:    0.54047 elapsed seconds
Timing for main: time 2019-11-26_21:10:30 on domain   1:    0.06374 elapsed seconds
Timing for main: time 2019-11-26_21:10:45 on domain   1:    0.06287 elapsed seconds
Timing for main: time 2019-11-26_21:11:00 on domain   1:    0.06472 elapsed seconds
Timing for main: time 2019-11-26_21:11:15 on domain   1:    0.06731 elapsed seconds
Timing for main: time 2019-11-26_21:11:30 on domain   1:    0.06762 elapsed seconds
Timing for main: time 2019-11-26_21:11:45 on domain   1:    0.06887 elapsed seconds
Timing for main: time 2019-11-26_21:12:00 on domain   1:    0.06854 elapsed seconds
Timing for main: time 2019-11-26_21:12:15 on domain   1:    0.06500 elapsed seconds
Timing for main: time 2019-11-26_21:12:30 on domain   1:    0.06633 elapsed seconds
Timing for main: time 2019-11-26_21:12:45 on domain   1:    0.06847 elapsed seconds
Timing for main: time 2019-11-26_21:13:00 on domain   1:    0.06871 elapsed seconds
Timing for main: time 2019-11-26_21:13:15 on domain   1:    0.06419 elapsed seconds
Timing for main: time 2019-11-26_21:13:30 on domain   1:    0.06647 elapsed seconds
Timing for main: time 2019-11-26_21:13:45 on domain   1:    0.06589 elapsed seconds
Timing for main: time 2019-11-26_21:14:00 on domain   1:    0.06468 elapsed seconds
Timing for main: time 2019-11-26_21:14:15 on domain   1:    0.06583 elapsed seconds
Timing for main: time 2019-11-26_21:14:30 on domain   1:    0.06679 elapsed seconds
Timing for main: time 2019-11-26_21:14:45 on domain   1:    0.06771 elapsed seconds
Timing for main: time 2019-11-26_21:15:00 on domain   1:    0.06509 elapsed seconds
Timing for main: time 2019-11-26_21:15:15 on domain   1:    0.06675 elapsed seconds
Timing for main: time 2019-11-26_21:15:30 on domain   1:    0.06768 elapsed seconds
Timing for main: time 2019-11-26_21:15:45 on domain   1:    0.06587 elapsed seconds
Timing for main: time 2019-11-26_21:16:00 on domain   1:    0.06524 elapsed seconds
Timing for main: time 2019-11-26_21:16:15 on domain   1:    0.06700 elapsed seconds
Timing for main: time 2019-11-26_21:16:30 on domain   1:    0.06664 elapsed seconds
Timing for main: time 2019-11-26_21:16:45 on domain   1:    0.06538 elapsed seconds
Timing for main: time 2019-11-26_21:17:00 on domain   1:    0.06719 elapsed seconds
Timing for main: time 2019-11-26_21:17:15 on domain   1:    0.06613 elapsed seconds
Timing for main: time 2019-11-26_21:17:30 on domain   1:    0.06621 elapsed seconds
Timing for main: time 2019-11-26_21:17:45 on domain   1:    0.06723 elapsed seconds
Timing for main: time 2019-11-26_21:18:00 on domain   1:    0.06731 elapsed seconds
Timing for main: time 2019-11-26_21:18:15 on domain   1:    0.06760 elapsed seconds
Timing for main: time 2019-11-26_21:18:30 on domain   1:    0.06477 elapsed seconds
Timing for main: time 2019-11-26_21:18:45 on domain   1:    0.06561 elapsed seconds
Timing for main: time 2019-11-26_21:19:00 on domain   1:    0.06961 elapsed seconds
Timing for main: time 2019-11-26_21:19:15 on domain   1:    0.06502 elapsed seconds
Timing for main: time 2019-11-26_21:19:30 on domain   1:    0.06457 elapsed seconds
Timing for main: time 2019-11-26_21:19:45 on domain   1:    0.06512 elapsed seconds
Timing for main: time 2019-11-26_21:20:00 on domain   1:    0.06733 elapsed seconds
Timing for main: time 2019-11-26_21:20:15 on domain   1:    0.53594 elapsed seconds
Timing for main: time 2019-11-26_21:20:30 on domain   1:    0.06516 elapsed seconds
Timing for main: time 2019-11-26_21:20:45 on domain   1:    0.35523 elapsed seconds
Timing for main: time 2019-11-26_21:21:00 on domain   1:    0.07651 elapsed seconds
Timing for main: time 2019-11-26_21:21:15 on domain   1:    0.06531 elapsed seconds
Timing for main: time 2019-11-26_21:21:30 on domain   1:    0.06580 elapsed seconds
Timing for main: time 2019-11-26_21:21:45 on domain   1:    0.06440 elapsed seconds
Timing for main: time 2019-11-26_21:22:00 on domain   1:    0.06841 elapsed seconds
Timing for main: time 2019-11-26_21:22:15 on domain   1:    0.06674 elapsed seconds
Timing for main: time 2019-11-26_21:22:30 on domain   1:    0.06780 elapsed seconds
Timing for main: time 2019-11-26_21:22:45 on domain   1:    0.06807 elapsed seconds
Timing for main: time 2019-11-26_21:23:00 on domain   1:    0.06735 elapsed seconds
Timing for main: time 2019-11-26_21:23:15 on domain   1:    0.06618 elapsed seconds
Timing for main: time 2019-11-26_21:23:30 on domain   1:    0.06675 elapsed seconds
Timing for main: time 2019-11-26_21:23:45 on domain   1:    0.06915 elapsed seconds
Timing for main: time 2019-11-26_21:24:00 on domain   1:    0.06383 elapsed seconds
Timing for main: time 2019-11-26_21:24:15 on domain   1:    0.06571 elapsed seconds
Timing for main: time 2019-11-26_21:24:30 on domain   1:    0.06584 elapsed seconds
Timing for main: time 2019-11-26_21:24:45 on domain   1:    0.06846 elapsed seconds
Timing for main: time 2019-11-26_21:25:00 on domain   1:    0.06977 elapsed seconds
Timing for main: time 2019-11-26_21:25:15 on domain   1:    0.06479 elapsed seconds
Timing for main: time 2019-11-26_21:25:30 on domain   1:    0.06588 elapsed seconds
Timing for main: time 2019-11-26_21:25:45 on domain   1:    0.06795 elapsed seconds
Timing for main: time 2019-11-26_21:26:00 on domain   1:    0.06622 elapsed seconds
Timing for main: time 2019-11-26_21:26:15 on domain   1:    0.06699 elapsed seconds
Timing for main: time 2019-11-26_21:26:30 on domain   1:    0.06620 elapsed seconds
Timing for main: time 2019-11-26_21:26:45 on domain   1:    0.06729 elapsed seconds
Timing for main: time 2019-11-26_21:27:00 on domain   1:    0.06632 elapsed seconds
Timing for main: time 2019-11-26_21:27:15 on domain   1:    0.06505 elapsed seconds
Timing for main: time 2019-11-26_21:27:30 on domain   1:    0.06698 elapsed seconds
Timing for main: time 2019-11-26_21:27:45 on domain   1:    0.06670 elapsed seconds
Timing for main: time 2019-11-26_21:28:00 on domain   1:    0.06615 elapsed seconds
Timing for main: time 2019-11-26_21:28:15 on domain   1:    1.65463 elapsed seconds
Timing for main: time 2019-11-26_21:28:30 on domain   1:    0.06866 elapsed seconds
Timing for main: time 2019-11-26_21:28:45 on domain   1:    0.06524 elapsed seconds
Timing for main: time 2019-11-26_21:29:00 on domain   1:    0.06411 elapsed seconds
Timing for main: time 2019-11-26_21:29:15 on domain   1:    0.06269 elapsed seconds
Timing for main: time 2019-11-26_21:29:30 on domain   1:    0.06464 elapsed seconds
Timing for main: time 2019-11-26_21:29:45 on domain   1:    0.06753 elapsed seconds
Timing for main: time 2019-11-26_21:30:00 on domain   1:    0.05853 elapsed seconds
Timing for main: time 2019-11-26_21:30:15 on domain   1:    0.54061 elapsed seconds
Timing for main: time 2019-11-26_21:30:30 on domain   1:    0.06675 elapsed seconds
Timing for main: time 2019-11-26_21:30:45 on domain   1:    0.06582 elapsed seconds
Timing for main: time 2019-11-26_21:31:00 on domain   1:    0.06692 elapsed seconds
Timing for main: time 2019-11-26_21:31:15 on domain   1:    0.06773 elapsed seconds
Timing for main: time 2019-11-26_21:31:30 on domain   1:    0.07179 elapsed seconds
Timing for main: time 2019-11-26_21:31:45 on domain   1:    0.06885 elapsed seconds
Timing for main: time 2019-11-26_21:32:00 on domain   1:    0.06801 elapsed seconds
Timing for main: time 2019-11-26_21:32:15 on domain   1:    0.06571 elapsed seconds
Timing for main: time 2019-11-26_21:32:30 on domain   1:    0.06764 elapsed seconds
Timing for main: time 2019-11-26_21:32:45 on domain   1:    0.06567 elapsed seconds
Timing for main: time 2019-11-26_21:33:00 on domain   1:    0.06733 elapsed seconds
Timing for main: time 2019-11-26_21:33:15 on domain   1:    0.06582 elapsed seconds
Timing for main: time 2019-11-26_21:33:30 on domain   1:    0.06621 elapsed seconds
Timing for main: time 2019-11-26_21:33:45 on domain   1:    0.06546 elapsed seconds
Timing for main: time 2019-11-26_21:34:00 on domain   1:    0.07022 elapsed seconds
Timing for main: time 2019-11-26_21:34:15 on domain   1:    0.06596 elapsed seconds
Timing for main: time 2019-11-26_21:34:30 on domain   1:    0.06623 elapsed seconds
Timing for main: time 2019-11-26_21:34:45 on domain   1:    0.06611 elapsed seconds
Timing for main: time 2019-11-26_21:35:00 on domain   1:    0.06666 elapsed seconds
Timing for main: time 2019-11-26_21:35:15 on domain   1:    0.06656 elapsed seconds
Timing for main: time 2019-11-26_21:35:30 on domain   1:    0.06589 elapsed seconds
Timing for main: time 2019-11-26_21:35:45 on domain   1:    0.06579 elapsed seconds
Timing for main: time 2019-11-26_21:36:00 on domain   1:    0.07050 elapsed seconds
Timing for main: time 2019-11-26_21:36:15 on domain   1:    0.06428 elapsed seconds
Timing for main: time 2019-11-26_21:36:30 on domain   1:    0.06487 elapsed seconds
Timing for main: time 2019-11-26_21:36:45 on domain   1:    0.06476 elapsed seconds
Timing for main: time 2019-11-26_21:37:00 on domain   1:    0.06906 elapsed seconds
Timing for main: time 2019-11-26_21:37:15 on domain   1:    0.06595 elapsed seconds
Timing for main: time 2019-11-26_21:37:30 on domain   1:    0.06709 elapsed seconds
Timing for main: time 2019-11-26_21:37:45 on domain   1:    0.06556 elapsed seconds
Timing for main: time 2019-11-26_21:38:00 on domain   1:    0.06557 elapsed seconds
Timing for main: time 2019-11-26_21:38:15 on domain   1:    0.06747 elapsed seconds
Timing for main: time 2019-11-26_21:38:30 on domain   1:    0.06411 elapsed seconds
Timing for main: time 2019-11-26_21:38:45 on domain   1:    0.06851 elapsed seconds
Timing for main: time 2019-11-26_21:39:00 on domain   1:    0.06667 elapsed seconds
Timing for main: time 2019-11-26_21:39:15 on domain   1:    0.06615 elapsed seconds
Timing for main: time 2019-11-26_21:39:30 on domain   1:    0.06637 elapsed seconds
Timing for main: time 2019-11-26_21:39:45 on domain   1:    0.06650 elapsed seconds
Timing for main: time 2019-11-26_21:40:00 on domain   1:    0.06660 elapsed seconds
Timing for main: time 2019-11-26_21:40:15 on domain   1:    0.54133 elapsed seconds
Timing for main: time 2019-11-26_21:40:30 on domain   1:    0.07457 elapsed seconds
Timing for main: time 2019-11-26_21:40:45 on domain   1:    0.06697 elapsed seconds
Timing for main: time 2019-11-26_21:41:00 on domain   1:    0.06867 elapsed seconds
Timing for main: time 2019-11-26_21:41:15 on domain   1:    0.06921 elapsed seconds
Timing for main: time 2019-11-26_21:41:30 on domain   1:    0.06840 elapsed seconds
Timing for main: time 2019-11-26_21:41:45 on domain   1:    0.06704 elapsed seconds
Timing for main: time 2019-11-26_21:42:00 on domain   1:    0.06691 elapsed seconds
Timing for main: time 2019-11-26_21:42:15 on domain   1:    0.06542 elapsed seconds
Timing for main: time 2019-11-26_21:42:30 on domain   1:    0.06591 elapsed seconds
Timing for main: time 2019-11-26_21:42:45 on domain   1:    0.06585 elapsed seconds
Timing for main: time 2019-11-26_21:43:00 on domain   1:    0.06575 elapsed seconds
Timing for main: time 2019-11-26_21:43:15 on domain   1:    0.06644 elapsed seconds
Timing for main: time 2019-11-26_21:43:30 on domain   1:    0.06579 elapsed seconds
Timing for main: time 2019-11-26_21:43:45 on domain   1:    0.06540 elapsed seconds
Timing for main: time 2019-11-26_21:44:00 on domain   1:    0.06635 elapsed seconds
Timing for main: time 2019-11-26_21:44:15 on domain   1:    0.06658 elapsed seconds
Timing for main: time 2019-11-26_21:44:30 on domain   1:    0.06671 elapsed seconds
Timing for main: time 2019-11-26_21:44:45 on domain   1:    0.06625 elapsed seconds
Timing for main: time 2019-11-26_21:45:00 on domain   1:    0.06562 elapsed seconds
Timing for main: time 2019-11-26_21:45:15 on domain   1:    0.06667 elapsed seconds
[...]
Timing for main: time 2019-11-26_23:01:30 on domain   1:    0.06956 elapsed seconds
Timing for main: time 2019-11-26_23:01:45 on domain   1:    0.06770 elapsed seconds
Timing for main: time 2019-11-26_23:02:00 on domain   1:    0.06657 elapsed seconds
Timing for main: time 2019-11-26_23:02:15 on domain   1:    0.06818 elapsed seconds
Timing for main: time 2019-11-26_23:02:30 on domain   1:    0.07037 elapsed seconds
Timing for main: time 2019-11-26_23:02:45 on domain   1:    0.06805 elapsed seconds
Timing for main: time 2019-11-26_23:03:00 on domain   1:    0.06708 elapsed seconds
Timing for main: time 2019-11-26_23:03:15 on domain   1:    0.07039 elapsed seconds
Timing for main: time 2019-11-26_23:03:30 on domain   1:    0.06647 elapsed seconds
Timing for main: time 2019-11-26_23:03:45 on domain   1:    0.07013 elapsed seconds
Timing for main: time 2019-11-26_23:04:00 on domain   1:    0.06674 elapsed seconds
Timing for main: time 2019-11-26_23:04:15 on domain   1:    0.06779 elapsed seconds
Timing for main: time 2019-11-26_23:04:30 on domain   1:    0.06910 elapsed seconds
Timing for main: time 2019-11-26_23:04:45 on domain   1:    0.06732 elapsed seconds
Timing for main: time 2019-11-26_23:05:00 on domain   1:    0.06754 elapsed seconds
Timing for main: time 2019-11-26_23:05:15 on domain   1:    0.06776 elapsed seconds
Timing for main: time 2019-11-26_23:05:30 on domain   1:    0.06865 elapsed seconds
Timing for main: time 2019-11-26_23:05:45 on domain   1:    0.06613 elapsed seconds
Timing for main: time 2019-11-26_23:06:00 on domain   1:    0.06800 elapsed seconds
Timing for main: time 2019-11-26_23:06:15 on domain   1:    0.06892 elapsed seconds
Timing for main: time 2019-11-26_23:06:30 on domain   1:    0.06669 elapsed seconds
Timing for main: time 2019-11-26_23:06:45 on domain   1:    0.06797 elapsed seconds
Timing for main: time 2019-11-26_23:07:00 on domain   1:    0.06820 elapsed seconds
Timing for main: time 2019-11-26_23:07:15 on domain   1:    0.06957 elapsed seconds
Timing for main: time 2019-11-26_23:07:30 on domain   1:    0.06524 elapsed seconds
Timing for main: time 2019-11-26_23:07:45 on domain   1:    0.06788 elapsed seconds
Timing for main: time 2019-11-26_23:08:00 on domain   1:    0.06760 elapsed seconds
Timing for main: time 2019-11-26_23:08:15 on domain   1:    0.07081 elapsed seconds
Timing for main: time 2019-11-26_23:08:30 on domain   1:    0.06483 elapsed seconds
Timing for main: time 2019-11-26_23:08:45 on domain   1:    0.06735 elapsed seconds
Timing for main: time 2019-11-26_23:09:00 on domain   1:    0.06690 elapsed seconds
Timing for main: time 2019-11-26_23:09:15 on domain   1:    0.06721 elapsed seconds
Timing for main: time 2019-11-26_23:09:30 on domain   1:    0.06820 elapsed seconds
Timing for main: time 2019-11-26_23:09:45 on domain   1:    0.06739 elapsed seconds
Timing for main: time 2019-11-26_23:10:00 on domain   1:    0.06976 elapsed seconds
Timing for main: time 2019-11-26_23:10:15 on domain   1:    0.55187 elapsed seconds
Timing for main: time 2019-11-26_23:10:30 on domain   1:    0.06900 elapsed seconds
Timing for main: time 2019-11-26_23:10:45 on domain   1:    0.06779 elapsed seconds
Timing for main: time 2019-11-26_23:11:00 on domain   1:    0.06767 elapsed seconds
Timing for main: time 2019-11-26_23:11:15 on domain   1:    0.06553 elapsed seconds
Timing for main: time 2019-11-26_23:11:30 on domain   1:    0.06555 elapsed seconds
Timing for main: time 2019-11-26_23:11:45 on domain   1:    0.06566 elapsed seconds
Timing for main: time 2019-11-26_23:12:00 on domain   1:    0.06877 elapsed seconds
Timing for main: time 2019-11-26_23:12:15 on domain   1:    0.06877 elapsed seconds
Timing for main: time 2019-11-26_23:12:30 on domain   1:    0.06872 elapsed seconds
Timing for main: time 2019-11-26_23:12:45 on domain   1:    0.06660 elapsed seconds
Timing for main: time 2019-11-26_23:13:00 on domain   1:    0.06694 elapsed seconds
Timing for main: time 2019-11-26_23:13:15 on domain   1:    0.06719 elapsed seconds
Timing for main: time 2019-11-26_23:13:30 on domain   1:    0.07200 elapsed seconds
Timing for main: time 2019-11-26_23:13:45 on domain   1:    0.06634 elapsed seconds
Timing for main: time 2019-11-26_23:14:00 on domain   1:    0.07156 elapsed seconds
Timing for main: time 2019-11-26_23:14:15 on domain   1:    0.06530 elapsed seconds
Timing for main: time 2019-11-26_23:14:30 on domain   1:    0.06689 elapsed seconds
Timing for main: time 2019-11-26_23:14:45 on domain   1:    0.06661 elapsed seconds
Timing for main: time 2019-11-26_23:15:00 on domain   1:    0.06763 elapsed seconds
Timing for main: time 2019-11-26_23:15:15 on domain   1:    0.06763 elapsed seconds
Timing for main: time 2019-11-26_23:15:30 on domain   1:    0.06637 elapsed seconds
Timing for main: time 2019-11-26_23:15:45 on domain   1:    0.06732 elapsed seconds
Timing for main: time 2019-11-26_23:16:00 on domain   1:    0.06977 elapsed seconds
Timing for main: time 2019-11-26_23:16:15 on domain   1:    0.06707 elapsed seconds
Timing for main: time 2019-11-26_23:16:30 on domain   1:    0.06724 elapsed seconds
Timing for main: time 2019-11-26_23:16:45 on domain   1:    0.06686 elapsed seconds
Timing for main: time 2019-11-26_23:17:00 on domain   1:    0.06872 elapsed seconds
Timing for main: time 2019-11-26_23:17:15 on domain   1:    0.07005 elapsed seconds
Timing for main: time 2019-11-26_23:17:30 on domain   1:    0.06651 elapsed seconds
Timing for main: time 2019-11-26_23:17:45 on domain   1:    0.06812 elapsed seconds
Timing for main: time 2019-11-26_23:18:00 on domain   1:    0.06757 elapsed seconds
Timing for main: time 2019-11-26_23:18:15 on domain   1:    0.06729 elapsed seconds
Timing for main: time 2019-11-26_23:18:30 on domain   1:    0.06762 elapsed seconds
Timing for main: time 2019-11-26_23:18:45 on domain   1:    0.06825 elapsed seconds
Timing for main: time 2019-11-26_23:19:00 on domain   1:    0.12843 elapsed seconds
Timing for main: time 2019-11-26_23:19:15 on domain   1:    0.06824 elapsed seconds
Timing for main: time 2019-11-26_23:19:30 on domain   1:    0.06551 elapsed seconds
Timing for main: time 2019-11-26_23:19:45 on domain   1:    0.06656 elapsed seconds
Timing for main: time 2019-11-26_23:20:00 on domain   1:    0.06644 elapsed seconds
Timing for main: time 2019-11-26_23:20:15 on domain   1:    0.62606 elapsed seconds
Timing for main: time 2019-11-26_23:20:30 on domain   1:    0.06826 elapsed seconds
Timing for main: time 2019-11-26_23:20:45 on domain   1:    0.06713 elapsed seconds
Timing for main: time 2019-11-26_23:21:00 on domain   1:    0.06520 elapsed seconds
Timing for main: time 2019-11-26_23:21:15 on domain   1:    0.06423 elapsed seconds
Timing for main: time 2019-11-26_23:21:30 on domain   1:    0.06601 elapsed seconds
Timing for main: time 2019-11-26_23:21:45 on domain   1:    0.06792 elapsed seconds
Timing for main: time 2019-11-26_23:22:00 on domain   1:    0.06887 elapsed seconds
Timing for main: time 2019-11-26_23:22:15 on domain   1:    0.06672 elapsed seconds
Timing for main: time 2019-11-26_23:22:30 on domain   1:    0.06755 elapsed seconds
Timing for main: time 2019-11-26_23:22:45 on domain   1:    0.06869 elapsed seconds
Timing for main: time 2019-11-26_23:23:00 on domain   1:    0.06607 elapsed seconds
Timing for main: time 2019-11-26_23:23:15 on domain   1:    0.06794 elapsed seconds
Timing for main: time 2019-11-26_23:23:30 on domain   1:    0.06709 elapsed seconds
Timing for main: time 2019-11-26_23:23:45 on domain   1:    0.06793 elapsed seconds
Timing for main: time 2019-11-26_23:24:00 on domain   1:    0.06732 elapsed seconds
Timing for main: time 2019-11-26_23:24:15 on domain   1:    0.06756 elapsed seconds
Timing for main: time 2019-11-26_23:24:30 on domain   1:    0.06691 elapsed seconds
Timing for main: time 2019-11-26_23:24:45 on domain   1:    0.06788 elapsed seconds
Timing for main: time 2019-11-26_23:25:00 on domain   1:    0.07088 elapsed seconds
Timing for main: time 2019-11-26_23:25:15 on domain   1:    0.06513 elapsed seconds
Timing for main: time 2019-11-26_23:25:30 on domain   1:    0.06617 elapsed seconds
Timing for main: time 2019-11-26_23:25:45 on domain   1:    0.06755 elapsed seconds
Timing for main: time 2019-11-26_23:26:00 on domain   1:    0.06799 elapsed seconds
Timing for main: time 2019-11-26_23:26:15 on domain   1:    0.06777 elapsed seconds
Timing for main: time 2019-11-26_23:26:30 on domain   1:    0.06690 elapsed seconds
Timing for main: time 2019-11-26_23:26:45 on domain   1:    0.06788 elapsed seconds
Timing for main: time 2019-11-26_23:27:00 on domain   1:    0.07099 elapsed seconds
Timing for main: time 2019-11-26_23:27:15 on domain   1:    0.06917 elapsed seconds
Timing for main: time 2019-11-26_23:27:30 on domain   1:    0.06544 elapsed seconds
Timing for main: time 2019-11-26_23:27:45 on domain   1:    0.06505 elapsed seconds
Timing for main: time 2019-11-26_23:28:00 on domain   1:    0.06732 elapsed seconds
Timing for main: time 2019-11-26_23:28:15 on domain   1:    0.06923 elapsed seconds
Timing for main: time 2019-11-26_23:28:30 on domain   1:    0.06621 elapsed seconds
Timing for main: time 2019-11-26_23:28:45 on domain   1:    0.06778 elapsed seconds
Timing for main: time 2019-11-26_23:29:00 on domain   1:    0.07149 elapsed seconds
Timing for main: time 2019-11-26_23:29:15 on domain   1:    0.06563 elapsed seconds
Timing for main: time 2019-11-26_23:29:30 on domain   1:    0.06677 elapsed seconds
Timing for main: time 2019-11-26_23:29:45 on domain   1:    0.06821 elapsed seconds
Timing for main: time 2019-11-26_23:30:00 on domain   1:    0.06851 elapsed seconds
Timing for main: time 2019-11-26_23:30:15 on domain   1:    0.55175 elapsed seconds
Timing for main: time 2019-11-26_23:30:30 on domain   1:    0.07669 elapsed seconds
Timing for main: time 2019-11-26_23:30:45 on domain   1:    0.06745 elapsed seconds
Timing for main: time 2019-11-26_23:31:00 on domain   1:    0.06673 elapsed seconds
Timing for main: time 2019-11-26_23:31:15 on domain   1:    0.07033 elapsed seconds
Timing for main: time 2019-11-26_23:31:30 on domain   1:    0.06870 elapsed seconds
Timing for main: time 2019-11-26_23:31:45 on domain   1:    0.06621 elapsed seconds
Timing for main: time 2019-11-26_23:32:00 on domain   1:    0.06522 elapsed seconds
Timing for main: time 2019-11-26_23:32:15 on domain   1:    0.06992 elapsed seconds
Timing for main: time 2019-11-26_23:32:30 on domain   1:    0.06748 elapsed seconds
Timing for main: time 2019-11-26_23:32:45 on domain   1:    0.06857 elapsed seconds
Timing for main: time 2019-11-26_23:33:00 on domain   1:    0.06920 elapsed seconds
Timing for main: time 2019-11-26_23:33:15 on domain   1:    0.06856 elapsed seconds
Timing for main: time 2019-11-26_23:33:30 on domain   1:    0.06743 elapsed seconds
Timing for main: time 2019-11-26_23:33:45 on domain   1:    0.06799 elapsed seconds
Timing for main: time 2019-11-26_23:34:00 on domain   1:    0.06938 elapsed seconds
Timing for main: time 2019-11-26_23:34:15 on domain   1:    0.06838 elapsed seconds
Timing for main: time 2019-11-26_23:34:30 on domain   1:    0.06837 elapsed seconds
Timing for main: time 2019-11-26_23:34:45 on domain   1:    0.06821 elapsed seconds
Timing for main: time 2019-11-26_23:35:00 on domain   1:    0.06837 elapsed seconds
Timing for main: time 2019-11-26_23:35:15 on domain   1:    0.06920 elapsed seconds
Timing for main: time 2019-11-26_23:35:30 on domain   1:    0.06786 elapsed seconds
Timing for main: time 2019-11-26_23:35:45 on domain   1:    0.06966 elapsed seconds
Timing for main: time 2019-11-26_23:36:00 on domain   1:    0.06843 elapsed seconds
Timing for main: time 2019-11-26_23:36:15 on domain   1:    0.06724 elapsed seconds
Timing for main: time 2019-11-26_23:36:30 on domain   1:    0.07173 elapsed seconds
Timing for main: time 2019-11-26_23:36:45 on domain   1:    0.06776 elapsed seconds
Timing for main: time 2019-11-26_23:37:00 on domain   1:    0.06827 elapsed seconds
Timing for main: time 2019-11-26_23:37:15 on domain   1:    0.06846 elapsed seconds
Timing for main: time 2019-11-26_23:37:30 on domain   1:    0.06900 elapsed seconds
Timing for main: time 2019-11-26_23:37:45 on domain   1:    0.06627 elapsed seconds
Timing for main: time 2019-11-26_23:38:00 on domain   1:    0.06801 elapsed seconds
Timing for main: time 2019-11-26_23:38:15 on domain   1:    0.06838 elapsed seconds
Timing for main: time 2019-11-26_23:38:30 on domain   1:    0.06828 elapsed seconds
Timing for main: time 2019-11-26_23:38:45 on domain   1:    0.07187 elapsed seconds
Timing for main: time 2019-11-26_23:39:00 on domain   1:    0.06886 elapsed seconds
Timing for main: time 2019-11-26_23:39:15 on domain   1:    0.06755 elapsed seconds
Timing for main: time 2019-11-26_23:39:30 on domain   1:    0.06817 elapsed seconds
Timing for main: time 2019-11-26_23:39:45 on domain   1:    0.06824 elapsed seconds
Timing for main: time 2019-11-26_23:40:00 on domain   1:    0.06905 elapsed seconds
Timing for main: time 2019-11-26_23:40:15 on domain   1:    0.55380 elapsed seconds
Timing for main: time 2019-11-26_23:40:30 on domain   1:    0.06780 elapsed seconds
Timing for main: time 2019-11-26_23:40:45 on domain   1:    0.06756 elapsed seconds
Timing for main: time 2019-11-26_23:41:00 on domain   1:    0.06513 elapsed seconds
Timing for main: time 2019-11-26_23:41:15 on domain   1:    0.06951 elapsed seconds
Timing for main: time 2019-11-26_23:41:30 on domain   1:    0.06567 elapsed seconds
Timing for main: time 2019-11-26_23:41:45 on domain   1:    0.06871 elapsed seconds
Timing for main: time 2019-11-26_23:42:00 on domain   1:    0.06779 elapsed seconds
Timing for main: time 2019-11-26_23:42:15 on domain   1:    0.06948 elapsed seconds
Timing for main: time 2019-11-26_23:42:30 on domain   1:    0.06938 elapsed seconds
Timing for main: time 2019-11-26_23:42:45 on domain   1:    0.06918 elapsed seconds
Timing for main: time 2019-11-26_23:43:00 on domain   1:    0.06873 elapsed seconds
Timing for main: time 2019-11-26_23:43:15 on domain   1:    0.06845 elapsed seconds
Timing for main: time 2019-11-26_23:43:30 on domain   1:    0.18701 elapsed seconds
Timing for main: time 2019-11-26_23:43:45 on domain   1:    0.06838 elapsed seconds
Timing for main: time 2019-11-26_23:44:00 on domain   1:    0.06428 elapsed seconds
Timing for main: time 2019-11-26_23:44:15 on domain   1:    0.06739 elapsed seconds
Timing for main: time 2019-11-26_23:44:30 on domain   1:    0.06905 elapsed seconds
Timing for main: time 2019-11-26_23:44:45 on domain   1:    0.06816 elapsed seconds
Timing for main: time 2019-11-26_23:45:00 on domain   1:    0.06695 elapsed seconds
Timing for main: time 2019-11-26_23:45:15 on domain   1:    0.07263 elapsed seconds
Timing for main: time 2019-11-26_23:45:30 on domain   1:    0.06525 elapsed seconds
Timing for main: time 2019-11-26_23:45:45 on domain   1:    0.06764 elapsed seconds
Timing for main: time 2019-11-26_23:46:00 on domain   1:    0.06693 elapsed seconds
Timing for main: time 2019-11-26_23:46:15 on domain   1:    0.06935 elapsed seconds
Timing for main: time 2019-11-26_23:46:30 on domain   1:    0.06830 elapsed seconds
Timing for main: time 2019-11-26_23:46:45 on domain   1:    0.08059 elapsed seconds
Timing for main: time 2019-11-26_23:47:00 on domain   1:    0.06678 elapsed seconds
Timing for main: time 2019-11-26_23:47:15 on domain   1:    0.06872 elapsed seconds
Timing for main: time 2019-11-26_23:47:30 on domain   1:    0.06769 elapsed seconds
Timing for main: time 2019-11-26_23:47:45 on domain   1:    0.07004 elapsed seconds
Timing for main: time 2019-11-26_23:48:00 on domain   1:    0.06778 elapsed seconds
Timing for main: time 2019-11-26_23:48:15 on domain   1:    0.06781 elapsed seconds
Timing for main: time 2019-11-26_23:48:30 on domain   1:    0.06963 elapsed seconds
Timing for main: time 2019-11-26_23:48:45 on domain   1:    0.06842 elapsed seconds
Timing for main: time 2019-11-26_23:49:00 on domain   1:    0.06741 elapsed seconds
Timing for main: time 2019-11-26_23:49:15 on domain   1:    0.06855 elapsed seconds
Timing for main: time 2019-11-26_23:49:30 on domain   1:    0.06905 elapsed seconds
Timing for main: time 2019-11-26_23:49:45 on domain   1:    0.06880 elapsed seconds
Timing for main: time 2019-11-26_23:50:00 on domain   1:    0.06832 elapsed seconds
Timing for main: time 2019-11-26_23:50:15 on domain   1:    0.56312 elapsed seconds
Timing for main: time 2019-11-26_23:50:30 on domain   1:    0.06775 elapsed seconds
Timing for main: time 2019-11-26_23:50:45 on domain   1:    0.06577 elapsed seconds
Timing for main: time 2019-11-26_23:51:00 on domain   1:    0.06433 elapsed seconds
Timing for main: time 2019-11-26_23:51:15 on domain   1:    0.06734 elapsed seconds
Timing for main: time 2019-11-26_23:51:30 on domain   1:    0.06709 elapsed seconds
Timing for main: time 2019-11-26_23:51:45 on domain   1:    0.06654 elapsed seconds
Timing for main: time 2019-11-26_23:52:00 on domain   1:    0.06743 elapsed seconds
Timing for main: time 2019-11-26_23:52:15 on domain   1:    0.06951 elapsed seconds
Timing for main: time 2019-11-26_23:52:30 on domain   1:    0.06983 elapsed seconds
Timing for main: time 2019-11-26_23:52:45 on domain   1:    0.06756 elapsed seconds
Timing for main: time 2019-11-26_23:53:00 on domain   1:    0.06917 elapsed seconds
Timing for main: time 2019-11-26_23:53:15 on domain   1:    0.06688 elapsed seconds
Timing for main: time 2019-11-26_23:53:30 on domain   1:    0.06741 elapsed seconds
Timing for main: time 2019-11-26_23:53:45 on domain   1:    0.06981 elapsed seconds
Timing for main: time 2019-11-26_23:54:00 on domain   1:    0.06646 elapsed seconds
Timing for main: time 2019-11-26_23:54:15 on domain   1:    0.06977 elapsed seconds
Timing for main: time 2019-11-26_23:54:30 on domain   1:    0.06868 elapsed seconds
Timing for main: time 2019-11-26_23:54:45 on domain   1:    0.06883 elapsed seconds
Timing for main: time 2019-11-26_23:55:00 on domain   1:    0.06557 elapsed seconds
Timing for main: time 2019-11-26_23:55:15 on domain   1:    0.06772 elapsed seconds
Timing for main: time 2019-11-26_23:55:30 on domain   1:    0.06728 elapsed seconds
Timing for main: time 2019-11-26_23:55:45 on domain   1:    0.06859 elapsed seconds
Timing for main: time 2019-11-26_23:56:00 on domain   1:    0.06646 elapsed seconds
Timing for main: time 2019-11-26_23:56:15 on domain   1:    0.06711 elapsed seconds
Timing for main: time 2019-11-26_23:56:30 on domain   1:    0.06819 elapsed seconds
Timing for main: time 2019-11-26_23:56:45 on domain   1:    0.06780 elapsed seconds
Timing for main: time 2019-11-26_23:57:00 on domain   1:    0.06690 elapsed seconds
Timing for main: time 2019-11-26_23:57:15 on domain   1:    0.06908 elapsed seconds
Timing for main: time 2019-11-26_23:57:30 on domain   1:    0.06619 elapsed seconds
Timing for main: time 2019-11-26_23:57:45 on domain   1:    0.06682 elapsed seconds
Timing for main: time 2019-11-26_23:58:00 on domain   1:    0.06934 elapsed seconds
Timing for main: time 2019-11-26_23:58:15 on domain   1:    0.06926 elapsed seconds
Timing for main: time 2019-11-26_23:58:30 on domain   1:    0.07211 elapsed seconds
Timing for main: time 2019-11-26_23:58:45 on domain   1:    0.10739 elapsed seconds
Timing for main: time 2019-11-26_23:59:00 on domain   1:    0.06441 elapsed seconds
Timing for main: time 2019-11-26_23:59:15 on domain   1:    0.06653 elapsed seconds
Timing for main: time 2019-11-26_23:59:30 on domain   1:    0.06811 elapsed seconds
Timing for main: time 2019-11-26_23:59:45 on domain   1:    0.06733 elapsed seconds
Timing for main: time 2019-11-27_00:00:00 on domain   1:    0.06693 elapsed seconds
Timing for Writing wrfout_d01_2019-11-27_00:00:00 for domain        1:  117.75500 elapsed seconds
wrf: SUCCESS COMPLETE WRF

MPICH Slingshot Network Summary: 6 network timeouts

